
 OpenBabel03301717483D

 12 12  0  0  0  0  0  0  0  0999 V2000
   -1.5802    1.4140    0.6300 S   0  5  0  0  0  0  0  0  0  0  0  0
    0.1085    1.0548    0.1376 C   0  0  0  0  0  0  0  0  0  0  0  0
    1.1961    1.7733    0.6737 C   0  0  0  0  0  0  0  0  0  0  0  0
    0.3419    0.0390   -0.7985 C   0  0  0  0  0  0  0  0  0  0  0  0
    2.5003    1.4648    0.2654 C   0  0  0  0  0  0  0  0  0  0  0  0
    2.7241    0.4500   -0.6690 C   0  0  0  0  0  0  0  0  0  0  0  0
    1.6462   -0.2621   -1.2004 C   0  0  0  0  0  0  0  0  0  0  0  0
   -0.4879   -0.5177   -1.2153 H   0  0  0  0  0  0  0  0  0  0  0  0
    1.8214   -1.0477   -1.9240 H   0  0  0  0  0  0  0  0  0  0  0  0
    3.3412    2.0120    0.6724 H   0  0  0  0  0  0  0  0  0  0  0  0
    3.7335    0.2155   -0.9813 H   0  0  0  0  0  0  0  0  0  0  0  0
    0.9471    3.0834    1.8760 S   0  0  0  0  0  0  0  0  0  0  0  0
  2  1  1  0  0  0  0
  2  3  1  0  0  0  0
  2  4  2  0  0  0  0
  3  5  2  0  0  0  0
  4  8  1  0  0  0  0
  5  6  1  0  0  0  0
  5 10  1  0  0  0  0
  6  7  2  0  0  0  0
  6 11  1  0  0  0  0
  7  4  1  0  0  0  0
  7  9  1  0  0  0  0
 12  3  1  0  0  0  0
M  CHG  2   1  -1  11  -1
M  END
