18

N          1.84290        7.60580       16.72250
N         -0.54130        8.17840       17.77970
C          3.01090        7.33380       16.11690
H          3.12480        7.71740       15.10790
C          4.02920        6.60660       16.72660
H          4.95430        6.41030       16.19570
N          3.81950        6.14240       18.02400
C          2.60860        6.41780       18.65690
H          2.43810        6.05350       19.66260
C         -0.05740        7.12980       19.88120
H          0.62390        6.58100       20.51970
N         -1.31800        7.47970       20.36180
C         -2.18650        8.18720       19.53320
H         -3.17770        8.47790       19.86410
C         -1.75190        8.51450       18.25140
H         -2.39280        9.06390       17.56900
C          1.62900        7.15490       17.98320
C          0.30850        7.49210       18.57990
