
 OpenBabel10061823253D

 32 32  0  0  0  0  0  0  0  0999 V2000
   -1.4086   -0.0836    0.4271 N   0  0  0  0  0  0  0  0  0  0  0  0
   -1.7466   -1.5153    0.3696 C   0  0  0  0  0  0  0  0  0  0  0  0
   -0.5350   -2.0816   -0.4246 C   0  0  0  0  0  0  0  0  0  0  0  0
    0.6850   -1.4453    0.1398 N   0  0  0  0  0  0  0  0  0  0  0  0
    1.9237   -1.5736   -0.6377 C   0  0  0  0  0  0  0  0  0  0  0  0
    2.8289   -0.5489    0.0097 C   0  0  0  0  0  0  0  0  0  0  0  0
    1.9283    0.5891    0.0059 N   0  0  0  0  0  0  0  0  0  0  0  0
    2.3574    1.9259    0.3650 C   0  0  0  0  0  0  0  0  0  0  0  0
    1.1087    2.6900   -0.0169 C   0  0  0  0  0  0  0  0  0  0  0  0
    0.0603    1.9225    0.6598 N   0  0  0  0  0  0  0  0  0  0  0  0
   -1.3498    2.2439    0.3130 C   0  0  0  0  0  0  0  0  0  0  0  0
   -2.2196    1.0685    0.8400 C   0  0  0  0  0  0  0  0  0  0  0  0
   -1.6870    0.0477   -0.5929 H   0  0  0  0  0  0  0  0  0  0  0  0
   -2.7167   -1.7350   -0.1389 H   0  0  0  0  0  0  0  0  0  0  0  0
   -1.8233   -1.9558    1.3870 H   0  0  0  0  0  0  0  0  0  0  0  0
   -0.6408   -1.7576   -1.4847 H   0  0  0  0  0  0  0  0  0  0  0  0
   -0.4936   -3.1933   -0.4171 H   0  0  0  0  0  0  0  0  0  0  0  0
    0.9749   -2.1203    0.9049 H   0  0  0  0  0  0  0  0  0  0  0  0
    1.7326   -1.3091   -1.7029 H   0  0  0  0  0  0  0  0  0  0  0  0
    2.3594   -2.6012   -0.6281 H   0  0  0  0  0  0  0  0  0  0  0  0
    3.7604   -0.3802   -0.5782 H   0  0  0  0  0  0  0  0  0  0  0  0
    3.0999   -0.8407    1.0482 H   0  0  0  0  0  0  0  0  0  0  0  0
    1.9307    0.7408   -1.0509 H   0  0  0  0  0  0  0  0  0  0  0  0
    3.2512    2.2720   -0.2038 H   0  0  0  0  0  0  0  0  0  0  0  0
    2.5618    1.9952    1.4559 H   0  0  0  0  0  0  0  0  0  0  0  0
    0.9475    2.6637   -1.1197 H   0  0  0  0  0  0  0  0  0  0  0  0
    1.1477    3.7638    0.2840 H   0  0  0  0  0  0  0  0  0  0  0  0
    0.1795    2.4039    1.5980 H   0  0  0  0  0  0  0  0  0  0  0  0
   -1.4417    2.2684   -0.7961 H   0  0  0  0  0  0  0  0  0  0  0  0
   -1.6836    3.2333    0.6982 H   0  0  0  0  0  0  0  0  0  0  0  0
   -3.2475    1.0821    0.4049 H   0  0  0  0  0  0  0  0  0  0  0  0
   -2.3495    1.0973    1.9438 H   0  0  0  0  0  0  0  0  0  0  0  0
  1  2  1  0  0  0  0
  1 12  1  0  0  0  0
  1 13  1  0  0  0  0
  2  3  1  0  0  0  0
  2 14  1  0  0  0  0
  2 15  1  0  0  0  0
  3  4  1  0  0  0  0
  3 16  1  0  0  0  0
  3 17  1  0  0  0  0
  4  5  1  0  0  0  0
  4 18  1  0  0  0  0
  5  6  1  0  0  0  0
  5 19  1  0  0  0  0
  5 20  1  0  0  0  0
  6  7  1  0  0  0  0
  6 21  1  0  0  0  0
  6 22  1  0  0  0  0
  7  8  1  0  0  0  0
  7 23  1  0  0  0  0
  8  9  1  0  0  0  0
  8 24  1  0  0  0  0
  8 25  1  0  0  0  0
  9 10  1  0  0  0  0
  9 26  1  0  0  0  0
  9 27  1  0  0  0  0
 10 11  1  0  0  0  0
 10 28  1  0  0  0  0
 11 12  1  0  0  0  0
 11 29  1  0  0  0  0
 11 30  1  0  0  0  0
 12 31  1  0  0  0  0
 12 32  1  0  0  0  0
M  END
