
 OpenBabel03141719543D

 38 38  0  0  0  0  0  0  0  0999 V2000
    2.8818   -1.7519    0.2694 C   0  0  0  0  0  0  0  0  0  0  0  0
    3.0556   -1.8527   -0.8241 H   0  0  0  0  0  0  0  0  0  0  0  0
    3.7180   -2.2625    0.7959 H   0  0  0  0  0  0  0  0  0  0  0  0
    2.9137   -0.2840    0.6897 C   0  0  0  0  0  0  0  0  0  0  0  0
    2.7618   -0.2038    1.7846 H   0  0  0  0  0  0  0  0  0  0  0  0
    3.9390    0.1001    0.4840 H   0  0  0  0  0  0  0  0  0  0  0  0
    1.9866    1.9261    0.3989 C   0  0  0  0  0  0  0  0  0  0  0  0
    2.9650    2.3995    0.1572 H   0  0  0  0  0  0  0  0  0  0  0  0
    1.8269    1.9808    1.4984 H   0  0  0  0  0  0  0  0  0  0  0  0
    0.8533    2.6692   -0.2846 C   0  0  0  0  0  0  0  0  0  0  0  0
    0.8167    3.7337    0.0352 H   0  0  0  0  0  0  0  0  0  0  0  0
    1.0449    2.6344   -1.3805 H   0  0  0  0  0  0  0  0  0  0  0  0
   -1.4799    2.4332   -0.8618 C   0  0  0  0  0  0  0  0  0  0  0  0
   -1.2247    2.2668   -1.9286 H   0  0  0  0  0  0  0  0  0  0  0  0
   -1.6220    3.5305   -0.7286 H   0  0  0  0  0  0  0  0  0  0  0  0
   -0.4118    1.9810    0.0419 N   0  0  0  0  0  0  0  0  0  0  0  0
   -0.6831    2.2603    1.0027 H   0  0  0  0  0  0  0  0  0  0  0  0
    1.9519    0.5237   -0.0674 N   0  0  0  0  0  0  0  0  0  0  0  0
    2.2564    0.5253   -1.0615 H   0  0  0  0  0  0  0  0  0  0  0  0
   -2.8205    1.7594   -0.5467 C   0  0  0  0  0  0  0  0  0  0  0  0
   -3.1083    1.9421    0.5114 H   0  0  0  0  0  0  0  0  0  0  0  0
   -3.5883    2.2360   -1.1946 H   0  0  0  0  0  0  0  0  0  0  0  0
   -2.8369    0.2605   -0.8544 C   0  0  0  0  0  0  0  0  0  0  0  0
   -2.5787    0.1004   -1.9223 H   0  0  0  0  0  0  0  0  0  0  0  0
   -3.8819   -0.0998   -0.7154 H   0  0  0  0  0  0  0  0  0  0  0  0
   -1.9885   -1.9345   -0.2865 C   0  0  0  0  0  0  0  0  0  0  0  0
   -2.9535   -2.3892    0.0299 H   0  0  0  0  0  0  0  0  0  0  0  0
   -1.8710   -2.0884   -1.3827 H   0  0  0  0  0  0  0  0  0  0  0  0
   -0.8043   -2.6202    0.3968 C   0  0  0  0  0  0  0  0  0  0  0  0
   -0.7941   -3.7079    0.1560 H   0  0  0  0  0  0  0  0  0  0  0  0
   -0.9255   -2.5052    1.4967 H   0  0  0  0  0  0  0  0  0  0  0  0
    1.5952   -2.4590    0.6800 C   0  0  0  0  0  0  0  0  0  0  0  0
    1.4518   -2.3707    1.7758 H   0  0  0  0  0  0  0  0  0  0  0  0
    1.7201   -3.5443    0.4648 H   0  0  0  0  0  0  0  0  0  0  0  0
    0.4201   -1.9691   -0.0588 N   0  0  0  0  0  0  0  0  0  0  0  0
    0.5574   -2.2426   -1.0681 H   0  0  0  0  0  0  0  0  0  0  0  0
   -1.9493   -0.5113    0.0332 N   0  0  0  0  0  0  0  0  0  0  0  0
   -2.3217   -0.3932    1.0117 H   0  0  0  0  0  0  0  0  0  0  0  0
  1 32  1  0  0  0  0
  1  3  1  0  0  0  0
  2  1  1  0  0  0  0
  4  6  1  0  0  0  0
  4  1  1  0  0  0  0
  4  5  1  0  0  0  0
  7 18  1  0  0  0  0
  7  9  1  0  0  0  0
  8  7  1  0  0  0  0
 10 16  1  0  0  0  0
 10  7  1  0  0  0  0
 11 10  1  0  0  0  0
 12 10  1  0  0  0  0
 13 20  1  0  0  0  0
 13 16  1  0  0  0  0
 14 13  1  0  0  0  0
 15 13  1  0  0  0  0
 16 17  1  0  0  0  0
 18  4  1  0  0  0  0
 19 18  1  0  0  0  0
 20 23  1  0  0  0  0
 20 21  1  0  0  0  0
 22 20  1  0  0  0  0
 23 37  1  0  0  0  0
 24 23  1  0  0  0  0
 25 23  1  0  0  0  0
 26 27  1  0  0  0  0
 26 29  1  0  0  0  0
 28 26  1  0  0  0  0
 29 30  1  0  0  0  0
 29 31  1  0  0  0  0
 32 34  1  0  0  0  0
 32 33  1  0  0  0  0
 35 29  1  0  0  0  0
 35 32  1  0  0  0  0
 36 35  1  0  0  0  0
 37 26  1  0  0  0  0
 37 38  1  0  0  0  0
M  END
