
 OpenBabel03301715073D

 12 11  0  0  0  0  0  0  0  0999 V2000
    3.6333   -0.4276   -0.0036 C   0  0  0  0  0  0  0  0  0  0  0  0
    3.4454    0.7802   -0.0061 O   0  0  0  0  0  0  0  0  0  0  0  0
    4.8938   -0.9437   -0.0003 N   0  0  0  0  0  0  0  0  0  0  0  0
    2.7715   -1.0894   -0.0041 H   0  0  0  0  0  0  0  0  0  0  0  0
    6.0521   -0.0636    0.0003 C   0  0  0  0  0  0  0  0  0  0  0  0
    6.0384    0.5781   -0.9065 H   0  0  0  0  0  0  0  0  0  0  0  0
    7.0055   -0.6327    0.0032 H   0  0  0  0  0  0  0  0  0  0  0  0
    6.0349    0.5813    0.9048 H   0  0  0  0  0  0  0  0  0  0  0  0
    5.0593   -2.3862    0.0025 C   0  0  0  0  0  0  0  0  0  0  0  0
    6.1297   -2.6815    0.0050 H   0  0  0  0  0  0  0  0  0  0  0  0
    4.5843   -2.8213   -0.9028 H   0  0  0  0  0  0  0  0  0  0  0  0
    4.5809   -2.8181    0.9075 H   0  0  0  0  0  0  0  0  0  0  0  0
  1  4  1  0  0  0  0
  2  1  2  0  0  0  0
  3  1  1  0  0  0  0
  5  3  1  0  0  0  0
  5  6  1  0  0  0  0
  5  7  1  0  0  0  0
  5  8  1  0  0  0  0
  9  3  1  0  0  0  0
  9 10  1  0  0  0  0
  9 11  1  0  0  0  0
  9 12  1  0  0  0  0
M  END
