
 OpenBabel03301712383D

 11 10  0  0  0  0  0  0  0  0999 V2000
    1.8232   -2.5687   -0.0092 C   0  0  0  0  0  0  0  0  0  0  0  0
    2.4766   -3.3191   -1.0507 N   0  0  0  0  0  0  0  0  0  0  0  0
    2.1093   -3.0905   -2.0030 H   0  0  0  0  0  0  0  0  0  0  0  0
    3.5132   -3.1753   -1.0015 H   0  0  0  0  0  0  0  0  0  0  0  0
    2.1231   -3.4189    1.1913 C   0  0  0  0  0  0  0  0  0  0  0  0
    0.7207   -2.5779   -0.1884 H   0  0  0  0  0  0  0  0  0  0  0  0
    2.1715   -1.5169    0.0716 H   0  0  0  0  0  0  0  0  0  0  0  0
    1.9378   -4.7420    0.7481 O   0  0  0  0  0  0  0  0  0  0  0  0
    0.9638   -4.9246    0.8267 H   0  0  0  0  0  0  0  0  0  0  0  0
    3.1941   -3.3021    1.4753 H   0  0  0  0  0  0  0  0  0  0  0  0
    1.5025   -3.1523    2.0760 H   0  0  0  0  0  0  0  0  0  0  0  0
  1  2  1  0  0  0  0
  1  5  1  0  0  0  0
  1  6  1  0  0  0  0
  1  7  1  0  0  0  0
  2  4  1  0  0  0  0
  3  2  1  0  0  0  0
  5 10  1  0  0  0  0
  5 11  1  0  0  0  0
  8  5  1  0  0  0  0
  8  9  1  0  0  0  0
M  END
