
 OpenBabel11161611483D

 32 33  0  0  0  0  0  0  0  0999 V2000
    1.8331    7.6443   16.6289 N   0  0  0  0  0  0  0  0  0  0  0  0
   -0.5888    8.2304   17.7123 N   0  0  0  0  0  0  0  0  0  0  0  0
    3.0014    7.3900   15.9936 C   0  0  0  0  0  0  0  0  0  0  0  0
    3.1540    7.7534   14.9914 H   0  0  0  0  0  0  0  0  0  0  0  0
    3.9920    6.6621   16.6399 C   0  0  0  0  0  0  0  0  0  0  0  0
    4.9248    6.4559   16.1362 H   0  0  0  0  0  0  0  0  0  0  0  0
    3.7441    6.1353   17.9448 C   0  0  0  0  0  0  0  0  0  0  0  0
    2.5351    6.4492   18.5653 C   0  0  0  0  0  0  0  0  0  0  0  0
    2.3256    6.0614   19.5421 H   0  0  0  0  0  0  0  0  0  0  0  0
   -0.0510    7.2591   19.8466 C   0  0  0  0  0  0  0  0  0  0  0  0
    0.6349    6.7922   20.5333 H   0  0  0  0  0  0  0  0  0  0  0  0
   -1.3213    7.6276   20.3270 C   0  0  0  0  0  0  0  0  0  0  0  0
   -2.2044    8.2306   19.4452 C   0  0  0  0  0  0  0  0  0  0  0  0
   -3.1902    8.5335   19.7766 H   0  0  0  0  0  0  0  0  0  0  0  0
   -1.8143    8.5787   18.1615 C   0  0  0  0  0  0  0  0  0  0  0  0
   -2.4976    9.1060   17.5091 H   0  0  0  0  0  0  0  0  0  0  0  0
    1.5864    7.2123   17.8911 C   0  0  0  0  0  0  0  0  0  0  0  0
    0.2942    7.5370   18.4836 C   0  0  0  0  0  0  0  0  0  0  0  0
   -1.7554    7.4983   21.7830 C   0  0  0  0  0  0  0  0  0  0  0  0
    4.6320    5.1337   18.7163 C   0  0  0  0  0  0  0  0  0  0  0  0
    6.0943    5.4347   19.0225 C   0  0  0  0  0  0  0  0  0  0  0  0
    6.7173    5.3555   18.1112 H   0  0  0  0  0  0  0  0  0  0  0  0
    6.4499    4.6438   19.7303 H   0  0  0  0  0  0  0  0  0  0  0  0
    6.2296    6.4105   19.5281 H   0  0  0  0  0  0  0  0  0  0  0  0
    4.5889    4.1566   18.1935 H   0  0  0  0  0  0  0  0  0  0  0  0
    4.1737    4.9577   19.7160 H   0  0  0  0  0  0  0  0  0  0  0  0
   -1.6317    6.1249   22.4247 C   0  0  0  0  0  0  0  0  0  0  0  0
   -2.1646    5.3528   21.8361 H   0  0  0  0  0  0  0  0  0  0  0  0
   -2.0931    6.1762   23.4384 H   0  0  0  0  0  0  0  0  0  0  0  0
   -0.5639    5.8551   22.5532 H   0  0  0  0  0  0  0  0  0  0  0  0
   -2.8226    7.8060   21.8754 H   0  0  0  0  0  0  0  0  0  0  0  0
   -1.1675    8.2155   22.3946 H   0  0  0  0  0  0  0  0  0  0  0  0
  1 17  1  0  0  0  0
  2 15  2  0  0  0  0
  2 18  1  0  0  0  0
  3  1  2  0  0  0  0
  3  5  1  0  0  0  0
  4  3  1  0  0  0  0
  5  7  2  0  0  0  0
  6  5  1  0  0  0  0
  7  8  1  0  0  0  0
  7 20  1  0  0  0  0
  8  9  1  0  0  0  0
 10 12  1  0  0  0  0
 10 11  1  0  0  0  0
 12 19  1  0  0  0  0
 13 14  1  0  0  0  0
 13 12  2  0  0  0  0
 15 13  1  0  0  0  0
 16 15  1  0  0  0  0
 17 18  1  0  0  0  0
 17  8  2  0  0  0  0
 18 10  2  0  0  0  0
 19 31  1  0  0  0  0
 19 32  1  0  0  0  0
 20 25  1  0  0  0  0
 20 26  1  0  0  0  0
 21 20  1  0  0  0  0
 21 22  1  0  0  0  0
 21 23  1  0  0  0  0
 21 24  1  0  0  0  0
 27 19  1  0  0  0  0
 27 28  1  0  0  0  0
 27 29  1  0  0  0  0
 27 30  1  0  0  0  0
M  END
