
 OpenBabel07181816563D

 26 25  0  0  0  0  0  0  0  0999 V2000
    3.8099    2.1933    0.1256 O   0  0  0  0  0  0  0  0  0  0  0  0
    3.4209    1.0285    0.2231 C   0  0  0  0  0  0  0  0  0  0  0  0
    2.1279    0.6562   -0.4457 C   0  0  0  0  0  0  0  0  0  0  0  0
    4.2177    0.0296    0.9921 C   0  0  0  0  0  0  0  0  0  0  0  0
    5.3689    0.4773    1.5443 C   0  0  0  0  0  0  0  0  0  0  0  0
    5.7136    1.7780    1.3828 O   0  5  0  0  0  0  0  0  0  0  0  0
    6.3168   -0.3928    2.3333 C   0  0  0  0  0  0  0  0  0  0  0  0
    1.6854    1.5373   -0.9580 H   0  0  0  0  0  0  0  0  0  0  0  0
    1.4018    0.2928    0.3114 H   0  0  0  0  0  0  0  0  0  0  0  0
    2.3071   -0.1315   -1.2070 H   0  0  0  0  0  0  0  0  0  0  0  0
    6.0101   -1.4515    2.4215 H   0  0  0  0  0  0  0  0  0  0  0  0
    6.4199    0.0217    3.3577 H   0  0  0  0  0  0  0  0  0  0  0  0
    7.3114   -0.3759    1.8414 H   0  0  0  0  0  0  0  0  0  0  0  0
    3.7643   -1.4254    1.0862 C   0  0  0  0  0  0  0  0  0  0  0  0
    3.3677   -1.8268    2.4775 C   0  0  0  0  0  0  0  0  0  0  0  0
    4.5674   -2.0839    0.6893 H   0  0  0  0  0  0  0  0  0  0  0  0
    2.8738   -1.6151    0.4590 H   0  0  0  0  0  0  0  0  0  0  0  0
    2.3405   -1.1806    3.0909 O   0  0  0  0  0  0  0  0  0  0  0  0
    3.9385   -2.7576    3.0279 O   0  0  0  0  0  0  0  0  0  0  0  0
    1.7609   -1.5941    4.2772 C   0  0  0  0  0  0  0  0  0  0  0  0
    0.9946   -2.9043    4.0908 C   0  0  0  0  0  0  0  0  0  0  0  0
    0.2099   -2.7762    3.3149 H   0  0  0  0  0  0  0  0  0  0  0  0
    0.5093   -3.1932    5.0465 H   0  0  0  0  0  0  0  0  0  0  0  0
    1.6739   -3.7254    3.7816 H   0  0  0  0  0  0  0  0  0  0  0  0
    2.5345   -1.7014    5.0687 H   0  0  0  0  0  0  0  0  0  0  0  0
    1.0374   -0.8172    4.6018 H   0  0  0  0  0  0  0  0  0  0  0  0
  1  2  2  0  0  0  0
  2  3  1  0  0  0  0
  2  4  1  0  0  0  0
  3  8  1  0  0  0  0
  3  9  1  0  0  0  0
  3 10  1  0  0  0  0
  4  5  2  0  0  0  0
  5  6  1  0  0  0  0
  5  7  1  0  0  0  0
  7 11  1  0  0  0  0
  7 12  1  0  0  0  0
  7 13  1  0  0  0  0
 14  4  1  0  0  0  0
 14 16  1  0  0  0  0
 14 17  1  0  0  0  0
 15 14  1  0  0  0  0
 18 15  1  0  0  0  0
 19 15  2  0  0  0  0
 20 18  1  0  0  0  0
 20 25  1  0  0  0  0
 20 26  1  0  0  0  0
 21 20  1  0  0  0  0
 21 22  1  0  0  0  0
 21 23  1  0  0  0  0
 21 24  1  0  0  0  0
M  CHG  1   6  -1
M  END
