
 OpenBabel10061815053D

 10 10  0  0  0  0  0  0  0  0999 V2000
   -1.6228    0.6210    0.0044 N   0  5  0  0  0  0  0  0  0  0  0  0
   -0.8165    1.6837    0.0026 C   0  0  0  0  0  0  0  0  0  0  0  0
    0.5048    1.3113   -0.0038 C   0  0  0  0  0  0  0  0  0  0  0  0
    0.5047   -0.0694   -0.0065 C   0  0  0  0  0  0  0  0  0  0  0  0
   -0.8165   -0.4418    0.0041 C   0  0  0  0  0  0  0  0  0  0  0  0
   -1.1446    2.6622    0.0056 H   0  0  0  0  0  0  0  0  0  0  0  0
    1.3276    1.9342   -0.0061 H   0  0  0  0  0  0  0  0  0  0  0  0
    1.3274   -0.6924   -0.0148 H   0  0  0  0  0  0  0  0  0  0  0  0
   -1.0187   -1.0317   -0.8654 H   0  0  0  0  0  0  0  0  0  0  0  0
   -1.0004   -1.0037    0.8960 H   0  0  0  0  0  0  0  0  0  0  0  0
  1  2  2  0  0  0  0
  1  5  1  0  0  0  0
  2  3  1  0  0  0  0
  2  6  1  0  0  0  0
  3  4  2  0  0  0  0
  3  7  1  0  0  0  0
  4  5  1  0  0  0  0
  4  8  1  0  0  0  0
  5  9  1  0  0  0  0
  5 10  1  0  0  0  0
M  CHG  1   1  -1
M  END
