
 OpenBabel10041823053D

 13 13  0  0  0  0  0  0  0  0999 V2000
    1.4489    7.7777   15.8575 N   0  0  0  0  0  0  0  0  0  0  0  0
    2.6755    7.2953   15.2425 C   0  0  0  0  0  0  0  0  0  0  0  0
    3.7491    6.9800   16.2647 C   0  0  0  0  0  0  0  0  0  0  0  0
    3.3266    5.7902   17.0996 C   0  0  0  0  0  0  0  0  0  0  0  0
    1.7739    6.0849   17.9666 S   0  0  0  0  0  0  0  0  0  0  0  0
    1.0262    7.3051   16.9727 C   0  0  0  0  0  0  0  0  0  0  0  0
    3.9487    7.8511   16.9013 H   0  0  0  0  0  0  0  0  0  0  0  0
    4.6855    6.7413   15.7472 H   0  0  0  0  0  0  0  0  0  0  0  0
    4.0988    5.5577   17.8397 H   0  0  0  0  0  0  0  0  0  0  0  0
    3.2080    4.9042   16.4663 H   0  0  0  0  0  0  0  0  0  0  0  0
    3.0493    8.0781   14.5731 H   0  0  0  0  0  0  0  0  0  0  0  0
    2.4560    6.4239   14.6141 H   0  0  0  0  0  0  0  0  0  0  0  0
    0.0826    7.7108   17.3733 H   0  0  0  0  0  0  0  0  0  0  0  0
  1  6  2  0  0  0  0
  2  1  1  0  0  0  0
  2  3  1  0  0  0  0
  2 11  1  0  0  0  0
  2 12  1  0  0  0  0
  3  4  1  0  0  0  0
  3  7  1  0  0  0  0
  3  8  1  0  0  0  0
  4  5  1  0  0  0  0
  4  9  1  0  0  0  0
  4 10  1  0  0  0  0
  6  5  1  0  0  0  0
 13  6  1  0  0  0  0
M  END
