
 OpenBabel10041823093D

 14 14  0  0  0  0  0  0  0  0999 V2000
    1.4686    7.7425   15.9317 N   0  0  0  0  0  0  0  0  0  0  0  0
    2.6736    7.3241   15.2375 C   0  0  0  0  0  0  0  0  0  0  0  0
    3.7512    6.9519   16.2490 C   0  0  0  0  0  0  0  0  0  0  0  0
    3.2062    5.8457   17.1572 C   0  0  0  0  0  0  0  0  0  0  0  0
    1.9101    6.2222   17.6915 N   0  0  0  0  0  0  0  0  0  0  0  0
    1.1053    7.2141   17.0537 C   0  0  0  0  0  0  0  0  0  0  0  0
    3.9741    7.8512   16.8664 H   0  0  0  0  0  0  0  0  0  0  0  0
    4.6881    6.6252   15.7500 H   0  0  0  0  0  0  0  0  0  0  0  0
    3.9314    5.6944   17.9846 H   0  0  0  0  0  0  0  0  0  0  0  0
    3.0949    4.8872   16.6052 H   0  0  0  0  0  0  0  0  0  0  0  0
    3.0257    8.1453   14.5789 H   0  0  0  0  0  0  0  0  0  0  0  0
    2.4439    6.4406   14.6022 H   0  0  0  0  0  0  0  0  0  0  0  0
    0.1682    7.5181   17.5087 H   0  0  0  0  0  0  0  0  0  0  0  0
    1.5235    5.7023   18.4920 H   0  0  0  0  0  0  0  0  0  0  0  0
  1  6  2  0  0  0  0
  2  1  1  0  0  0  0
  2  3  1  0  0  0  0
  2 11  1  0  0  0  0
  2 12  1  0  0  0  0
  3  4  1  0  0  0  0
  3  7  1  0  0  0  0
  3  8  1  0  0  0  0
  4  5  1  0  0  0  0
  4  9  1  0  0  0  0
  4 10  1  0  0  0  0
  5 14  1  0  0  0  0
  6  5  1  0  0  0  0
 13  6  1  0  0  0  0
M  END
