
 OpenBabel11161612223D

 15 15  0  0  0  0  0  0  0  0999 V2000
   -1.5042    1.1446    0.2643 S   0  5  0  0  0  0  0  0  0  0  0  0
    0.1925    0.6902   -0.1041 C   0  0  0  0  0  0  0  0  0  0  0  0
    1.2753    1.4528    0.3729 C   0  0  0  0  0  0  0  0  0  0  0  0
    0.4362   -0.4549   -0.8763 C   0  0  0  0  0  0  0  0  0  0  0  0
    2.5854    1.0605    0.0800 C   0  0  0  0  0  0  0  0  0  0  0  0
    2.8245   -0.0933   -0.6745 C   0  0  0  0  0  0  0  0  0  0  0  0
    1.7510   -0.8530   -1.1574 C   0  0  0  0  0  0  0  0  0  0  0  0
   -0.3992   -1.0418   -1.2375 H   0  0  0  0  0  0  0  0  0  0  0  0
    3.4223    1.6451    0.4396 H   0  0  0  0  0  0  0  0  0  0  0  0
    3.8437   -0.3865   -0.8908 H   0  0  0  0  0  0  0  0  0  0  0  0
    1.0107    2.9280    1.3634 S   0  0  0  0  0  0  0  0  0  0  0  0
    2.0166   -2.0936   -1.9608 C   0  0  0  0  0  0  0  0  0  0  0  0
    2.4453   -2.8725   -1.2961 H   0  0  0  0  0  0  0  0  0  0  0  0
    2.7373   -1.8758   -2.7769 H   0  0  0  0  0  0  0  0  0  0  0  0
    1.0843   -2.4916   -2.4151 H   0  0  0  0  0  0  0  0  0  0  0  0
  2  1  1  0  0  0  0
  2  3  1  0  0  0  0
  2  4  2  0  0  0  0
  3  5  2  0  0  0  0
  4  8  1  0  0  0  0
  5  6  1  0  0  0  0
  5  9  1  0  0  0  0
  6  7  2  0  0  0  0
  6 10  1  0  0  0  0
  7  4  1  0  0  0  0
 11  3  1  0  0  0  0
 12  7  1  0  0  0  0
 12 13  1  0  0  0  0
 12 14  1  0  0  0  0
 12 15  1  0  0  0  0
M  CHG  2   1  -1  12  -1
M  END
