
 OpenBabel04011913213D

 14 14  0  0  0  0  0  0  0  0999 V2000
   -1.3973   -0.0761   -0.0182 C   0  0  0  0  0  0  0  0  0  0  0  0
   -0.7585    1.1595    0.0059 C   0  0  0  0  0  0  0  0  0  0  0  0
    0.6267    1.1804    0.0427 C   0  0  0  0  0  0  0  0  0  0  0  0
    1.3949    0.0695    0.0604 N   0  0  0  0  0  0  0  0  0  0  0  0
    0.7464   -1.1155    0.0384 C   0  0  0  0  0  0  0  0  0  0  0  0
   -0.6334   -1.2381   -0.0024 C   0  0  0  0  0  0  0  0  0  0  0  0
   -1.3251    2.0833   -0.0041 H   0  0  0  0  0  0  0  0  0  0  0  0
    1.1718    2.1198    0.0594 H   0  0  0  0  0  0  0  0  0  0  0  0
    1.3860   -1.9930    0.0554 H   0  0  0  0  0  0  0  0  0  0  0  0
   -1.1008   -2.2162   -0.0210 H   0  0  0  0  0  0  0  0  0  0  0  0
   -2.9626   -0.0225   -0.0617 C   0  0  0  0  0  0  0  0  0  0  0  0
   -3.2845    0.9979   -0.0658 H   0  0  0  0  0  0  0  0  0  0  0  0
   -3.3605   -0.5185    0.7988 H   0  0  0  0  0  0  0  0  0  0  0  0
   -3.3117   -0.5102   -0.9478 H   0  0  0  0  0  0  0  0  0  0  0  0
  1  2  2  0  0  0  0
  1  6  1  0  0  0  0
  1 11  1  0  0  0  0
  2  3  1  0  0  0  0
  2  7  1  0  0  0  0
  3  4  1  0  0  0  0
  3  8  1  0  0  0  0
  4  5  1  0  0  0  0
  5  6  2  0  0  0  0
  5  9  1  0  0  0  0
  6 10  1  0  0  0  0
 11 12  1  0  0  0  0
 11 13  1  0  0  0  0
 11 14  1  0  0  0  0
M  END
