29

C    0.00000000  0.00000000  0.00000000
C   -0.95538641  0.44246362  1.12386064
N   -1.56699250 -0.59329749  2.05312751
C   -2.50997130 -0.15658016  3.16239256
C   -3.08315082 -1.12726549  4.03327457
C   -3.96688326 -0.71798664  5.07284567
C   -5.15962505 -1.45486480  5.32499211
C   -5.46863444 -2.60102179  4.53756743
C   -4.58490199 -3.01030064  3.49799635
N   -3.39216019 -2.27342249  3.24584992
H   -4.82135003 -3.88731792  2.89547414
H   -6.38129752 -3.16486678  4.73050504
H   -5.83584012 -1.14169250  6.12045191
C   -4.27743617  0.66197753  5.24153476
C   -3.70425665  1.63266286  4.37065274
C   -2.82052422  1.22338402  3.33108165
H   -2.38193829  1.96613376  2.66469947
H   -3.94188578  2.68858491  4.49973038
H   -4.95365122  0.97514984  6.03699457
O   -1.23334709  1.67760179  1.27484595
C    0.16391531 -1.53076520  0.03859645
C    1.11930172 -1.97322881 -1.08526420
H    1.23531970 -3.05669249 -1.05794593
H    0.70784550 -1.67608454 -2.04989317
H    2.09095502 -1.50008171 -0.94341329
H    0.57537153 -1.82790947  1.00322543
H   -0.80773799 -2.00391230 -0.10325446
H   -0.41145622  0.29714427 -0.96462898
H    0.97165330  0.47314711  0.14185090
