21

C    0.00000000  0.00000000  0.00000000
C    0.86015475 -1.04886332  0.43499402
C    1.06600174 -2.19034503 -0.39195627
C    0.41169396 -2.28296342 -1.65390057
N   -0.44846081 -1.23410011 -2.08889458
C   -0.65430779 -0.09261840 -1.26194429
H   -1.31248166  0.70995163 -1.59479335
C    0.63423124 -3.51699770 -2.54790089
C    1.67240193 -3.51200459 -3.52328642
C    1.87824888 -4.65348627 -4.35023676
C    1.04592517 -5.79996107 -4.20180153
C    0.00775451 -5.80495420 -3.22641596
C   -0.19809245 -4.66347251 -2.39946564
H   -0.99248070 -4.66729314 -1.65311939
H   -0.62912358 -6.68221467 -3.11283617
H    1.20343530 -6.67340090 -4.83456802
H    2.67263712 -4.64966564 -5.09658301
H    2.30928001 -2.63474412 -3.63686622
H    1.72417560 -2.99291507 -0.05910721
H    1.36081848 -0.97799350  1.40060952
H   -0.15751015  0.87343985  0.63276645
