
 OpenBabel11161612513D

 13 13  0  0  0  0  0  0  0  0999 V2000
    0.8979    0.0983    0.5444 C   0  5  0  0  0  0  0  0  0  0  0  0
    2.0398    0.1013    0.3592 N   0  3  0  0  0  0  0  0  0  0  0  0
    3.4077    0.1081    0.1474 C   0  0  0  0  0  0  0  0  0  0  0  0
    4.0859    1.3218   -0.0074 C   0  0  0  0  0  0  0  0  0  0  0  0
    5.4717    1.3326   -0.2058 C   0  0  0  0  0  0  0  0  0  0  0  0
    6.1841    0.1278   -0.2496 C   0  0  0  0  0  0  0  0  0  0  0  0
    5.5028   -1.0894   -0.1047 C   0  0  0  0  0  0  0  0  0  0  0  0
    4.1158   -1.0976    0.0937 C   0  0  0  0  0  0  0  0  0  0  0  0
    3.5390    2.2545    0.0295 H   0  0  0  0  0  0  0  0  0  0  0  0
    5.9896    2.2763   -0.3225 H   0  0  0  0  0  0  0  0  0  0  0  0
    6.0432   -2.0274   -0.1426 H   0  0  0  0  0  0  0  0  0  0  0  0
    3.5910   -2.0374    0.2089 H   0  0  0  0  0  0  0  0  0  0  0  0
    7.2602    0.1409   -0.3961 H   0  0  0  0  0  0  0  0  0  0  0  0
  1  2  3  0  0  0  0
  2  3  1  0  0  0  0
  3  4  2  0  0  0  0
  3  8  1  0  0  0  0
  4  5  1  0  0  0  0
  4  9  1  0  0  0  0
  5  6  2  0  0  0  0
  5 10  1  0  0  0  0
  6  7  1  0  0  0  0
  7  8  2  0  0  0  0
  7 11  1  0  0  0  0
  8 12  1  0  0  0  0
 13  6  1  0  0  0  0
M  CHG  2   1  -1   2   1
M  END
