
 OpenBabel11121719243D

 33 37  0  0  0  0  0  0  0  0999 V2000
    3.6279    0.1708    0.0449 C   0  0  0  0  0  0  0  0  0  0  0  0
    2.7959    1.2967    0.0799 C   0  0  0  0  0  0  0  0  0  0  0  0
    1.4051    1.1355    0.0520 C   0  0  0  0  0  0  0  0  0  0  0  0
    0.5519    2.2489    0.0862 C   0  0  0  0  0  0  0  0  0  0  0  0
   -0.8346    2.0744    0.0578 C   0  0  0  0  0  0  0  0  0  0  0  0
   -1.3817    0.7847   -0.0051 C   0  0  0  0  0  0  0  0  0  0  0  0
   -2.7686    0.5911   -0.0342 C   0  0  0  0  0  0  0  0  0  0  0  0
   -3.2854   -0.7039   -0.0968 C   0  0  0  0  0  0  0  0  0  0  0  0
   -2.4122   -1.7937   -0.1297 C   0  0  0  0  0  0  0  0  0  0  0  0
   -1.0670   -1.5944   -0.1009 N   0  0  0  0  0  0  0  0  0  0  0  0
   -0.5303   -0.3433   -0.0399 C   0  0  0  0  0  0  0  0  0  0  0  0
    0.8620   -0.1681   -0.0114 C   0  0  0  0  0  0  0  0  0  0  0  0
    1.6911   -1.2477   -0.0446 N   0  0  0  0  0  0  0  0  0  0  0  0
    3.0462   -1.1161   -0.0184 C   0  0  0  0  0  0  0  0  0  0  0  0
    3.2275    2.2907    0.1286 H   0  0  0  0  0  0  0  0  0  0  0  0
    0.9594    3.2518    0.1348 H   0  0  0  0  0  0  0  0  0  0  0  0
   -1.4802    2.9442    0.0848 H   0  0  0  0  0  0  0  0  0  0  0  0
   -3.4458    1.4365   -0.0087 H   0  0  0  0  0  0  0  0  0  0  0  0
   -4.3557   -0.8627   -0.1197 H   0  0  0  0  0  0  0  0  0  0  0  0
   -2.8054   -2.8003   -0.1782 H   0  0  0  0  0  0  0  0  0  0  0  0
    5.0240    0.3079    0.0719 C   0  0  0  0  0  0  0  0  0  0  0  0
    5.8433   -0.8240    0.0364 C   0  0  0  0  0  0  0  0  0  0  0  0
    5.2745   -2.1044   -0.0265 C   0  0  0  0  0  0  0  0  0  0  0  0
    3.8689   -2.2527   -0.0541 C   0  0  0  0  0  0  0  0  0  0  0  0
    5.4785    1.2903    0.1204 H   0  0  0  0  0  0  0  0  0  0  0  0
    6.9196   -0.7016    0.0579 H   0  0  0  0  0  0  0  0  0  0  0  0
    3.3212   -3.4990   -0.1153 N   0  0  0  0  0  0  0  0  0  0  0  0
    4.0942   -4.6177   -0.1510 C   0  0  0  0  0  0  0  0  0  0  0  0
    5.4868   -4.5112   -0.1253 C   0  0  0  0  0  0  0  0  0  0  0  0
    6.0801   -3.2495   -0.0628 C   0  0  0  0  0  0  0  0  0  0  0  0
    3.6272   -5.5922   -0.1994 H   0  0  0  0  0  0  0  0  0  0  0  0
    6.1016   -5.4015   -0.1537 H   0  0  0  0  0  0  0  0  0  0  0  0
    7.1603   -3.1668   -0.0429 H   0  0  0  0  0  0  0  0  0  0  0  0
  1  2  2  0  0  0  0
  1 14  1  0  0  0  0
  1 21  1  0  0  0  0
  2  3  1  0  0  0  0
  2 15  1  0  0  0  0
  3  4  2  0  0  0  0
  3 12  1  0  0  0  0
  4  5  1  0  0  0  0
  4 16  1  0  0  0  0
  5  6  2  0  0  0  0
  5 17  1  0  0  0  0
  6  7  1  0  0  0  0
  6 11  1  0  0  0  0
  7  8  2  0  0  0  0
  7 18  1  0  0  0  0
  8  9  1  0  0  0  0
  8 19  1  0  0  0  0
  9 10  2  0  0  0  0
  9 20  1  0  0  0  0
 10 11  1  0  0  0  0
 11 12  2  0  0  0  0
 12 13  1  0  0  0  0
 13 14  2  0  0  0  0
 14 24  1  0  0  0  0
 21 22  2  0  0  0  0
 21 25  1  0  0  0  0
 22 23  1  0  0  0  0
 22 26  1  0  0  0  0
 23 24  2  0  0  0  0
 23 30  1  0  0  0  0
 24 27  1  0  0  0  0
 27 28  2  0  0  0  0
 28 29  1  0  0  0  0
 28 31  1  0  0  0  0
 29 30  2  0  0  0  0
 29 32  1  0  0  0  0
 30 33  1  0  0  0  0
M  END
