
 OpenBabel04091611223D

 24 24  0  0  0  0  0  0  0  0999 V2000
    2.1367    0.1253    0.3201 O   0  3  0  0  0  0  0  0  0  0  0  0
    3.4604    0.1297    0.0829 C   0  0  0  0  0  0  0  0  0  0  0  0
    4.1399    1.3384   -0.0911 C   0  0  0  0  0  0  0  0  0  0  0  0
    5.5165    1.3399   -0.3376 C   0  0  0  0  0  0  0  0  0  0  0  0
    6.2422    0.1285   -0.4164 C   0  0  0  0  0  0  0  0  0  0  0  0
    7.7622    0.1657   -0.6905 C   0  0  0  0  0  0  0  0  0  0  0  0
    8.0225    0.8523   -2.0490 C   0  0  0  0  0  0  0  0  0  0  0  0
    8.4675    0.9576    0.4319 C   0  0  0  0  0  0  0  0  0  0  0  0
    8.4055   -1.2412   -0.7462 C   0  0  0  0  0  0  0  0  0  0  0  0
    5.5331   -1.0842   -0.2376 C   0  0  0  0  0  0  0  0  0  0  0  0
    4.1571   -1.0763    0.0086 C   0  0  0  0  0  0  0  0  0  0  0  0
    3.4728    2.5039   -0.0203 O   0  0  0  0  0  0  0  0  0  0  0  0
    6.0166    2.2900   -0.4677 H   0  0  0  0  0  0  0  0  0  0  0  0
    7.5252    0.2895   -2.8685 H   0  0  0  0  0  0  0  0  0  0  0  0
    9.1119    0.8951   -2.2665 H   0  0  0  0  0  0  0  0  0  0  0  0
    7.6411    1.8943   -2.0631 H   0  0  0  0  0  0  0  0  0  0  0  0
    8.2937    0.4715    1.4163 H   0  0  0  0  0  0  0  0  0  0  0  0
    8.0994    2.0028    0.4918 H   0  0  0  0  0  0  0  0  0  0  0  0
    9.5639    1.0022    0.2537 H   0  0  0  0  0  0  0  0  0  0  0  0
    8.2787   -1.7750    0.2205 H   0  0  0  0  0  0  0  0  0  0  0  0
    9.4970   -1.1677   -0.9451 H   0  0  0  0  0  0  0  0  0  0  0  0
    7.9591   -1.8507   -1.5614 H   0  0  0  0  0  0  0  0  0  0  0  0
    6.0264   -2.0429   -0.2855 H   0  0  0  0  0  0  0  0  0  0  0  0
    3.6311   -2.0133    0.1430 H   0  0  0  0  0  0  0  0  0  0  0  0
  1  2  1  0  0  0  0
  2  3  2  0  0  0  0
  2 11  1  0  0  0  0
  3  4  1  0  0  0  0
  3 12  1  0  0  0  0
  4  5  2  0  0  0  0
  4 13  1  0  0  0  0
  5 10  1  0  0  0  0
  5  6  1  0  0  0  0
  6  9  1  0  0  0  0
  6  8  1  0  0  0  0
  6  7  1  0  0  0  0
  7 14  1  0  0  0  0
  7 15  1  0  0  0  0
  7 16  1  0  0  0  0
  8 17  1  0  0  0  0
  8 18  1  0  0  0  0
  8 19  1  0  0  0  0
  9 20  1  0  0  0  0
  9 21  1  0  0  0  0
  9 22  1  0  0  0  0
 10 11  2  0  0  0  0
 10 23  1  0  0  0  0
 11 24  1  0  0  0  0
M  CHG  2   1  -1  12  -1
M  END
