
 OpenBabel10241616473D

 13 13  0  0  0  0  0  0  0  0999 V2000
    1.1939    4.0321    1.2037 O   0  0  0  0  0  0  0  0  0  0  0  0
    1.4139    4.2513    2.6452 C   0  0  0  0  0  0  0  0  0  0  0  0
    2.4686    3.2213    3.0668 C   0  0  0  0  0  0  0  0  0  0  0  0
    2.4252    2.1737    1.9444 C   0  0  0  0  0  0  0  0  0  0  0  0
    2.1479    3.0267    0.7186 C   0  0  0  0  0  0  0  0  0  0  0  0
    1.7563    5.2782    2.7764 H   0  0  0  0  0  0  0  0  0  0  0  0
    0.4453    4.1176    3.1290 H   0  0  0  0  0  0  0  0  0  0  0  0
    2.2466    2.8009    4.0509 H   0  0  0  0  0  0  0  0  0  0  0  0
    3.4597    3.6840    3.1153 H   0  0  0  0  0  0  0  0  0  0  0  0
    3.3606    1.6158    1.8497 H   0  0  0  0  0  0  0  0  0  0  0  0
    1.6124    1.4569    2.1059 H   0  0  0  0  0  0  0  0  0  0  0  0
    1.6744    2.5012   -0.1077 H   0  0  0  0  0  0  0  0  0  0  0  0
    3.0357    3.5472    0.3484 H   0  0  0  0  0  0  0  0  0  0  0  0
  1  2  1  0  0  0  0
  2  6  1  0  0  0  0
  2  3  1  0  0  0  0
  2  7  1  0  0  0  0
  3  9  1  0  0  0  0
  3  8  1  0  0  0  0
  4 11  1  0  0  0  0
  4  3  1  0  0  0  0
  5  1  1  0  0  0  0
  5  4  1  0  0  0  0
 10  4  1  0  0  0  0
 12  5  1  0  0  0  0
 13  5  1  0  0  0  0
M  END
