
 OpenBabel11011615453D

  7  6  0  0  0  0  0  0  0  0999 V2000
   -1.9481   -0.7959    0.3058 C   0  0  0  0  0  0  0  0  0  0  0  0
   -1.3284   -2.0848   -0.0101 C   0  0  0  0  0  0  0  0  0  0  0  0
   -3.2342   -1.0168    0.9710 C   0  0  0  0  0  0  0  0  0  0  0  0
   -1.0644   -0.0259    1.1842 C   0  0  0  0  0  0  0  0  0  0  0  0
   -0.3660    0.5834    1.8776 N   0  0  0  0  0  0  0  0  0  0  0  0
   -4.2510   -1.1908    1.4958 N   0  0  0  0  0  0  0  0  0  0  0  0
   -0.8387   -3.1032   -0.2608 N   0  0  0  0  0  0  0  0  0  0  0  0
  1  2  1  0  0  0  0
  1  3  1  0  0  0  0
  1  4  1  0  0  0  0
  5  4  3  0  0  0  0
  6  3  3  0  0  0  0
  7  2  3  0  0  0  0
M  CHG  1   1  -1
M  END
