
 OpenBabel03301717123D

 28 28  0  0  0  0  0  0  0  0999 V2000
    0.1254    1.9002    0.3344 O   0  3  0  0  0  0  0  0  0  0  0  0
   -0.9467    2.3473   -0.5047 C   0  0  0  0  0  0  0  0  0  0  0  0
   -2.1705    1.3374   -0.4850 C   0  0  0  0  0  0  0  0  0  0  0  0
   -1.7981    0.0820    0.0568 O   0  3  0  0  0  0  0  0  0  0  0  0
   -2.2274   -1.1357   -0.5017 C   0  0  0  0  0  0  0  0  0  0  0  0
   -1.3234   -2.2184    0.1535 C   0  0  0  0  0  0  0  0  0  0  0  0
   -0.0037   -1.8091   -0.1138 O   0  3  0  0  0  0  0  0  0  0  0  0
    1.0900   -2.3431    0.5763 C   0  0  0  0  0  0  0  0  0  0  0  0
    2.2855   -1.4231    0.1788 C   0  0  0  0  0  0  0  0  0  0  0  0
    1.9089   -0.0852    0.4585 O   0  3  0  0  0  0  0  0  0  0  0  0
    2.4304    0.9950   -0.2891 C   0  0  0  0  0  0  0  0  0  0  0  0
    1.4654    2.2445   -0.0828 C   0  0  0  0  0  0  0  0  0  0  0  0
   -2.0939   -1.1400   -1.6064 H   0  0  0  0  0  0  0  0  0  0  0  0
   -3.2927   -1.3280   -0.2559 H   0  0  0  0  0  0  0  0  0  0  0  0
   -1.5352   -3.2044   -0.3123 H   0  0  0  0  0  0  0  0  0  0  0  0
   -1.5159   -2.2523    1.2471 H   0  0  0  0  0  0  0  0  0  0  0  0
    1.2940   -3.3881    0.2619 H   0  0  0  0  0  0  0  0  0  0  0  0
    0.9175   -2.3213    1.6735 H   0  0  0  0  0  0  0  0  0  0  0  0
    2.5163   -1.5615   -0.8983 H   0  0  0  0  0  0  0  0  0  0  0  0
    3.1650   -1.7032    0.7985 H   0  0  0  0  0  0  0  0  0  0  0  0
    2.5183    0.7312   -1.3626 H   0  0  0  0  0  0  0  0  0  0  0  0
    3.4552    1.2622    0.0465 H   0  0  0  0  0  0  0  0  0  0  0  0
    1.5212    2.9238   -0.9632 H   0  0  0  0  0  0  0  0  0  0  0  0
    1.8798    2.8172    0.7719 H   0  0  0  0  0  0  0  0  0  0  0  0
   -0.6135    2.4646   -1.5564 H   0  0  0  0  0  0  0  0  0  0  0  0
   -1.3054    3.3440   -0.1634 H   0  0  0  0  0  0  0  0  0  0  0  0
   -2.9183    1.7406    0.2325 H   0  0  0  0  0  0  0  0  0  0  0  0
   -2.6565    1.2790   -1.4830 H   0  0  0  0  0  0  0  0  0  0  0  0
  1 12  1  0  0  0  0
  2 26  1  0  0  0  0
  2  1  1  0  0  0  0
  3  2  1  0  0  0  0
  3  4  1  0  0  0  0
  5  4  1  0  0  0  0
  5  6  1  0  0  0  0
  6  7  1  0  0  0  0
  6 16  1  0  0  0  0
  7  8  1  0  0  0  0
  8 18  1  0  0  0  0
  9 10  1  0  0  0  0
  9  8  1  0  0  0  0
  9 20  1  0  0  0  0
 11 22  1  0  0  0  0
 11 10  1  0  0  0  0
 12 11  1  0  0  0  0
 12 24  1  0  0  0  0
 13  5  1  0  0  0  0
 14  5  1  0  0  0  0
 15  6  1  0  0  0  0
 17  8  1  0  0  0  0
 19  9  1  0  0  0  0
 21 11  1  0  0  0  0
 23 12  1  0  0  0  0
 25  2  1  0  0  0  0
 27  3  1  0  0  0  0
 28  3  1  0  0  0  0
M  CHG  1   1   0
M  END
