
 OpenBabel07181817433D

 36 35  0  0  0  0  0  0  0  0999 V2000
    2.0145   -3.7977   -2.0701 C   0  0  0  0  0  0  0  0  0  0  0  0
    1.3272   -3.0553   -0.9407 C   0  0  0  0  0  0  0  0  0  0  0  0
    1.4079   -1.7579   -0.8232 N   0  0  0  0  0  0  0  0  0  0  0  0
    2.2073   -0.9477   -1.7122 C   0  0  0  0  0  0  0  0  0  0  0  0
    2.4824    0.4173   -1.0725 C   0  0  0  0  0  0  0  0  0  0  0  0
    1.5108    0.7409   -0.0385 N   0  0  0  0  0  0  0  0  0  0  0  0
    1.4525    1.9392    0.4827 C   0  0  0  0  0  0  0  0  0  0  0  0
    0.4616    2.3633    1.5312 C   0  0  0  0  0  0  0  0  0  0  0  0
   -0.5310    1.3658    2.0196 C   0  0  0  0  0  0  0  0  0  0  0  0
   -0.5869    0.2123    1.6334 O   0  0  0  0  0  0  0  0  0  0  0  0
   -1.5229    1.7959    3.0602 C   0  0  0  0  0  0  0  0  0  0  0  0
    2.3841    3.0711    0.0673 C   0  0  0  0  0  0  0  0  0  0  0  0
    0.6289   -3.8782    0.1057 C   0  0  0  0  0  0  0  0  0  0  0  0
   -0.6495   -3.3006    0.5990 C   0  0  0  0  0  0  0  0  0  0  0  0
   -0.7631   -2.1043    0.8195 O   0  0  0  0  0  0  0  0  0  0  0  0
   -1.8110   -4.2030    0.8887 C   0  0  0  0  0  0  0  0  0  0  0  0
    1.8401   -4.8921   -2.0135 H   0  0  0  0  0  0  0  0  0  0  0  0
    1.6177   -3.4421   -3.0447 H   0  0  0  0  0  0  0  0  0  0  0  0
    3.1110   -3.6368   -2.0349 H   0  0  0  0  0  0  0  0  0  0  0  0
    3.2074   -1.3923   -1.9111 H   0  0  0  0  0  0  0  0  0  0  0  0
    1.6606   -0.8541   -2.6743 H   0  0  0  0  0  0  0  0  0  0  0  0
    2.4669    1.1485   -1.9106 H   0  0  0  0  0  0  0  0  0  0  0  0
    3.4870    0.4251   -0.5933 H   0  0  0  0  0  0  0  0  0  0  0  0
   -0.1177    3.2172    1.1173 H   0  0  0  0  0  0  0  0  0  0  0  0
    1.0333    2.7215    2.4145 H   0  0  0  0  0  0  0  0  0  0  0  0
   -1.3829    2.8627    3.3367 H   0  0  0  0  0  0  0  0  0  0  0  0
   -1.3958    1.1758    3.9727 H   0  0  0  0  0  0  0  0  0  0  0  0
   -2.5536    1.6626    2.6703 H   0  0  0  0  0  0  0  0  0  0  0  0
    3.1487    2.8158   -0.6881 H   0  0  0  0  0  0  0  0  0  0  0  0
    2.9329    3.4411    0.9581 H   0  0  0  0  0  0  0  0  0  0  0  0
    1.7802    3.9065   -0.3471 H   0  0  0  0  0  0  0  0  0  0  0  0
    0.5270   -4.9522   -0.1631 H   0  0  0  0  0  0  0  0  0  0  0  0
    1.3072   -3.8559    0.9804 H   0  0  0  0  0  0  0  0  0  0  0  0
   -2.1273   -4.7205   -0.0405 H   0  0  0  0  0  0  0  0  0  0  0  0
   -2.6716   -3.6206    1.2835 H   0  0  0  0  0  0  0  0  0  0  0  0
   -1.5167   -4.9574    1.6482 H   0  0  0  0  0  0  0  0  0  0  0  0
  1  2  1  0  0  0  0
  1 17  1  0  0  0  0
  1 18  1  0  0  0  0
  1 19  1  0  0  0  0
  2  3  2  0  0  0  0
  2 13  1  0  0  0  0
  3  4  1  0  0  0  0
  4  5  1  0  0  0  0
  4 20  1  0  0  0  0
  4 21  1  0  0  0  0
  5  6  1  0  0  0  0
  5 22  1  0  0  0  0
  5 23  1  0  0  0  0
  6  7  2  0  0  0  0
  7  8  1  0  0  0  0
  7 12  1  0  0  0  0
  8  9  1  0  0  0  0
  8 24  1  0  0  0  0
  8 25  1  0  0  0  0
  9 10  2  0  0  0  0
  9 11  1  0  0  0  0
 11 26  1  0  0  0  0
 11 27  1  0  0  0  0
 11 28  1  0  0  0  0
 12 29  1  0  0  0  0
 12 30  1  0  0  0  0
 12 31  1  0  0  0  0
 13 14  1  0  0  0  0
 13 32  1  0  0  0  0
 13 33  1  0  0  0  0
 14 15  2  0  0  0  0
 14 16  1  0  0  0  0
 16 34  1  0  0  0  0
 16 35  1  0  0  0  0
 16 36  1  0  0  0  0
M  END
