
 OpenBabel03142421563D

 14 13  0  0  0  0  0  0  0  0999 V2000
    3.1144    0.8372   -1.4020 O   0  0  0  0  0  0  0  0  0  0  0  0
    2.5505    0.2219   -0.5095 C   0  0  0  0  0  0  0  0  0  0  0  0
    1.0576    0.0909   -0.5564 C   0  0  0  0  0  0  0  0  0  0  0  0
    3.3222   -0.3885    0.6057 C   0  0  0  0  0  0  0  0  0  0  0  0
    4.6639   -0.3188    0.7249 C   0  0  0  0  0  0  0  0  0  0  0  0
    5.4090    0.3313   -0.1923 O   0  5  0  0  0  0  0  0  0  0  0  0
    5.3707   -0.9629    1.8831 C   0  0  0  0  0  0  0  0  0  0  0  0
    0.5953    1.1001   -0.5394 H   0  0  0  0  0  0  0  0  0  0  0  0
    0.6737   -0.4886    0.3095 H   0  0  0  0  0  0  0  0  0  0  0  0
    0.7595   -0.4299   -1.4905 H   0  0  0  0  0  0  0  0  0  0  0  0
    2.7584   -0.9218    1.3662 H   0  0  0  0  0  0  0  0  0  0  0  0
    4.6658   -1.4697    2.5767 H   0  0  0  0  0  0  0  0  0  0  0  0
    5.9265   -0.1881    2.4512 H   0  0  0  0  0  0  0  0  0  0  0  0
    6.0904   -1.7166    1.5010 H   0  0  0  0  0  0  0  0  0  0  0  0
  1  2  2  0  0  0  0
  2  3  1  0  0  0  0
  2  4  1  0  0  0  0
  3  8  1  0  0  0  0
  3  9  1  0  0  0  0
  3 10  1  0  0  0  0
  4  5  2  0  0  0  0
  4 11  1  0  0  0  0
  5  6  1  0  0  0  0
  5  7  1  0  0  0  0
  7 12  1  0  0  0  0
  7 13  1  0  0  0  0
  7 14  1  0  0  0  0
M  CHG  1   6  -1
M  END
