
 OpenBabel07041716383D

 12 12  0  0  0  0  0  0  0  0999 V2000
   -0.7654    1.1509   -0.0016 C   0  0  0  0  0  0  0  0  0  0  0  0
    0.6271    1.2313   -0.0007 C   0  0  0  0  0  0  0  0  0  0  0  0
    1.3929    0.0655    0.0010 C   0  0  0  0  0  0  0  0  0  0  0  0
    0.7663   -1.1806    0.0019 C   0  0  0  0  0  0  0  0  0  0  0  0
   -0.6262   -1.2610    0.0010 C   0  5  0  0  0  0  0  0  0  0  0  0
   -1.3921   -0.0952   -0.0007 C   0  0  0  0  0  0  0  0  0  0  0  0
   -1.3621    2.0591   -0.0029 H   0  0  0  0  0  0  0  0  0  0  0  0
    1.1153    2.2021   -0.0014 H   0  0  0  0  0  0  0  0  0  0  0  0
    2.4778    0.1281    0.0017 H   0  0  0  0  0  0  0  0  0  0  0  0
    1.3630   -2.0889    0.0032 H   0  0  0  0  0  0  0  0  0  0  0  0
   -2.4770   -0.1579   -0.0014 H   0  0  0  0  0  0  0  0  0  0  0  0
   -1.1145   -2.2319    0.0017 H   0  0  0  0  0  0  0  0  0  0  0  0
  1  2  2  0  0  0  0
  1  6  1  0  0  0  0
  1  7  1  0  0  0  0
  2  3  1  0  0  0  0
  2  8  1  0  0  0  0
  3  4  2  0  0  0  0
  3  9  1  0  0  0  0
  4  5  1  0  0  0  0
  4 10  1  0  0  0  0
  5  6  2  0  0  0  0
  5 12  1  0  0  0  0
  6 11  1  0  0  0  0
M  CHG  1   5  -1
M  END
