
 OpenBabel10041822183D

 16 17  0  0  0  0  0  0  0  0999 V2000
    2.4662   -5.7309   -1.1078 N   0  0  0  0  0  0  0  0  0  0  0  0
    3.2016   -6.3273   -2.0590 C   0  0  0  0  0  0  0  0  0  0  0  0
    2.4499   -6.3929   -3.2105 C   0  0  0  0  0  0  0  0  0  0  0  0
    1.2840   -5.4429   -1.6887 C   0  0  0  0  0  0  0  0  0  0  0  0
    1.2433   -5.8370   -2.9792 N   0  0  0  0  0  0  0  0  0  0  0  0
   -1.0266   -3.8227    0.5013 C   0  0  0  0  0  0  0  0  0  0  0  0
    0.1764   -4.3743    0.2784 N   0  0  0  0  0  0  0  0  0  0  0  0
    0.1600   -4.7771   -1.0078 C   0  0  0  0  0  0  0  0  0  0  0  0
   -1.7603   -3.8994   -0.6612 C   0  0  0  0  0  0  0  0  0  0  0  0
   -1.0154   -4.4995   -1.6117 N   0  0  0  0  0  0  0  0  0  0  0  0
    2.7622   -5.5371   -0.1261 H   0  0  0  0  0  0  0  0  0  0  0  0
    0.9538   -4.4653    0.9690 H   0  0  0  0  0  0  0  0  0  0  0  0
   -2.7711   -3.5422   -0.8082 H   0  0  0  0  0  0  0  0  0  0  0  0
   -1.3464   -3.3953    1.4428 H   0  0  0  0  0  0  0  0  0  0  0  0
    2.7591   -6.8173   -4.1567 H   0  0  0  0  0  0  0  0  0  0  0  0
    4.2129   -6.6885   -1.9234 H   0  0  0  0  0  0  0  0  0  0  0  0
  1 11  1  0  0  0  0
  2 16  1  0  0  0  0
  2  1  1  0  0  0  0
  3  5  1  0  0  0  0
  3  2  2  0  0  0  0
  4  1  1  0  0  0  0
  4  8  1  0  0  0  0
  5  4  2  0  0  0  0
  6 14  1  0  0  0  0
  7  6  1  0  0  0  0
  7 12  1  0  0  0  0
  8  7  1  0  0  0  0
  9  6  2  0  0  0  0
 10  8  2  0  0  0  0
 10  9  1  0  0  0  0
 13  9  1  0  0  0  0
 15  3  1  0  0  0  0
M  END
