
 OpenBabel10041822553D

 24 25  0  0  0  0  0  0  0  0999 V2000
    1.4447    7.6578   15.9535 N   0  0  0  0  0  0  0  0  0  0  0  0
   -0.9311    8.3022   17.2303 N   0  0  0  0  0  0  0  0  0  0  0  0
    2.6615    7.3230   15.2403 C   0  0  0  0  0  0  0  0  0  0  0  0
    3.7514    6.9665   16.2439 C   0  0  0  0  0  0  0  0  0  0  0  0
    3.2147    5.8364   17.1275 C   0  0  0  0  0  0  0  0  0  0  0  0
    1.9580    6.1482   17.6290 O   0  0  0  0  0  0  0  0  0  0  0  0
   -0.4499    6.8028   18.9243 O   0  0  0  0  0  0  0  0  0  0  0  0
   -1.5545    7.1367   19.6968 C   0  0  0  0  0  0  0  0  0  0  0  0
   -2.0542    8.5463   19.3655 C   0  0  0  0  0  0  0  0  0  0  0  0
   -2.1967    8.6399   17.8512 C   0  0  0  0  0  0  0  0  0  0  0  0
    1.1281    7.0767   17.0675 C   0  0  0  0  0  0  0  0  0  0  0  0
   -0.1352    7.4197   17.7467 C   0  0  0  0  0  0  0  0  0  0  0  0
    3.9509    7.8593   16.8770 H   0  0  0  0  0  0  0  0  0  0  0  0
    4.6955    6.6669   15.7408 H   0  0  0  0  0  0  0  0  0  0  0  0
    3.9236    5.6653   17.9647 H   0  0  0  0  0  0  0  0  0  0  0  0
    3.1324    4.8941   16.5440 H   0  0  0  0  0  0  0  0  0  0  0  0
    2.9764    8.1818   14.6112 H   0  0  0  0  0  0  0  0  0  0  0  0
    2.4653    6.4534   14.5755 H   0  0  0  0  0  0  0  0  0  0  0  0
   -1.2923    9.2884   19.6922 H   0  0  0  0  0  0  0  0  0  0  0  0
   -3.0112    8.7638   19.8859 H   0  0  0  0  0  0  0  0  0  0  0  0
   -2.9743    7.9251   17.5035 H   0  0  0  0  0  0  0  0  0  0  0  0
   -2.5012    9.6641   17.5500 H   0  0  0  0  0  0  0  0  0  0  0  0
   -1.2894    7.0923   20.7741 H   0  0  0  0  0  0  0  0  0  0  0  0
   -2.3524    6.3875   19.5042 H   0  0  0  0  0  0  0  0  0  0  0  0
  1 11  2  0  0  0  0
  2 10  1  0  0  0  0
  2 12  2  0  0  0  0
  3  1  1  0  0  0  0
  3  4  1  0  0  0  0
  3 17  1  0  0  0  0
  3 18  1  0  0  0  0
  4  5  1  0  0  0  0
  4 13  1  0  0  0  0
  4 14  1  0  0  0  0
  5  6  1  0  0  0  0
  5 15  1  0  0  0  0
  5 16  1  0  0  0  0
  7  8  1  0  0  0  0
  8 23  1  0  0  0  0
  8 24  1  0  0  0  0
  9  8  1  0  0  0  0
  9 19  1  0  0  0  0
  9 20  1  0  0  0  0
 10  9  1  0  0  0  0
 10 21  1  0  0  0  0
 10 22  1  0  0  0  0
 11 12  1  0  0  0  0
 11  6  1  0  0  0  0
 12  7  1  0  0  0  0
M  END
