
 OpenBabel10041821103D

 18 19  0  0  0  0  0  0  0  0999 V2000
    2.4309   -5.7585   -1.1564 O   0  0  0  0  0  0  0  0  0  0  0  0
    3.2377   -6.4615   -2.0270 C   0  0  0  0  0  0  0  0  0  0  0  0
    2.4732   -6.3800   -3.3705 C   0  0  0  0  0  0  0  0  0  0  0  0
    1.2796   -5.4399   -1.7537 C   0  0  0  0  0  0  0  0  0  0  0  0
    1.2310   -5.7766   -2.9772 N   0  0  0  0  0  0  0  0  0  0  0  0
    2.3280   -7.3805   -3.8297 H   0  0  0  0  0  0  0  0  0  0  0  0
    2.9804   -5.6853   -4.0750 H   0  0  0  0  0  0  0  0  0  0  0  0
    4.2555   -6.0250   -2.1038 H   0  0  0  0  0  0  0  0  0  0  0  0
    3.2867   -7.5119   -1.6654 H   0  0  0  0  0  0  0  0  0  0  0  0
   -1.0986   -3.7632    0.5552 C   0  0  0  0  0  0  0  0  0  0  0  0
    0.1987   -4.2996    0.3305 O   0  0  0  0  0  0  0  0  0  0  0  0
    0.1621   -4.7826   -1.0546 C   0  0  0  0  0  0  0  0  0  0  0  0
   -1.8365   -3.9488   -0.6513 C   0  0  0  0  0  0  0  0  0  0  0  0
   -0.9589   -4.5791   -1.5855 N   0  0  0  0  0  0  0  0  0  0  0  0
   -2.1652   -2.9674   -1.0522 H   0  0  0  0  0  0  0  0  0  0  0  0
   -2.7097   -4.6086   -0.4612 H   0  0  0  0  0  0  0  0  0  0  0  0
   -1.0309   -2.7212    0.7888 H   0  0  0  0  0  0  0  0  0  0  0  0
   -1.5786   -4.2515    1.3774 H   0  0  0  0  0  0  0  0  0  0  0  0
  2  9  1  0  0  0  0
  2  1  1  0  0  0  0
  3  5  1  0  0  0  0
  3  2  1  0  0  0  0
  4  1  1  0  0  0  0
  4 12  1  0  0  0  0
  5  4  2  0  0  0  0
  6  3  1  0  0  0  0
  7  3  1  0  0  0  0
  8  2  1  0  0  0  0
 10 17  1  0  0  0  0
 10 18  1  0  0  0  0
 11 10  1  0  0  0  0
 12 11  1  0  0  0  0
 13 16  1  0  0  0  0
 13 10  1  0  0  0  0
 14 12  2  0  0  0  0
 14 13  1  0  0  0  0
 15 13  1  0  0  0  0
M  END
