
 OpenBabel10041823303D

 16 17  0  0  0  0  0  0  0  0999 V2000
   -0.6333   -0.6446   -0.8468 C   0  0  0  0  0  0  0  0  0  0  0  0
    0.3076    0.2863   -0.4667 C   0  0  0  0  0  0  0  0  0  0  0  0
    1.3068   -0.3408    0.1855 N   0  0  0  0  0  0  0  0  0  0  0  0
    0.9539   -1.6435    0.1896 C   0  0  0  0  0  0  0  0  0  0  0  0
   -0.2228   -1.8529   -0.4327 N   0  0  0  0  0  0  0  0  0  0  0  0
   -0.7220   -2.7590   -0.5710 H   0  0  0  0  0  0  0  0  0  0  0  0
   -1.5518   -0.4560   -1.3866 H   0  0  0  0  0  0  0  0  0  0  0  0
    0.2705    1.3515   -0.6511 H   0  0  0  0  0  0  0  0  0  0  0  0
    2.4358   -4.6249    1.4721 C   0  0  0  0  0  0  0  0  0  0  0  0
    3.3638   -3.6774    1.8427 C   0  0  0  0  0  0  0  0  0  0  0  0
    2.9456   -2.4663    1.4239 N   0  0  0  0  0  0  0  0  0  0  0  0
    1.7691   -2.7008    0.8055 C   0  0  0  0  0  0  0  0  0  0  0  0
    1.4381   -4.0068    0.8221 N   0  0  0  0  0  0  0  0  0  0  0  0
    0.5876   -4.4574    0.4182 H   0  0  0  0  0  0  0  0  0  0  0  0
    2.4832   -5.6890    1.6620 H   0  0  0  0  0  0  0  0  0  0  0  0
    4.2846   -3.8544    2.3821 H   0  0  0  0  0  0  0  0  0  0  0  0
  1  2  2  0  0  0  0
  1  5  1  0  0  0  0
  1  7  1  0  0  0  0
  2  3  1  0  0  0  0
  2  8  1  0  0  0  0
  3  4  2  0  0  0  0
  4  5  1  0  0  0  0
  5  6  1  0  0  0  0
  9 10  2  0  0  0  0
  9 13  1  0  0  0  0
  9 15  1  0  0  0  0
 10 11  1  0  0  0  0
 10 16  1  0  0  0  0
 11 12  2  0  0  0  0
 12 13  1  0  0  0  0
 12  4  1  0  0  0  0
 13 14  1  0  0  0  0
M  END
