
 OpenBabel10061815243D

 18 19  0  0  0  0  0  0  0  0999 V2000
    2.5511   -5.7576   -1.1048 C   0  0  0  0  0  0  0  0  0  0  0  0
    3.2984   -6.3547   -2.0820 C   0  0  0  0  0  0  0  0  0  0  0  0
    2.4982   -6.4032   -3.3517 C   0  0  0  0  0  0  0  0  0  0  0  0
    1.2863   -5.4227   -1.7079 C   0  0  0  0  0  0  0  0  0  0  0  0
    1.2532   -5.7774   -2.9396 N   0  0  0  0  0  0  0  0  0  0  0  0
    2.3237   -7.4504   -3.6759 H   0  0  0  0  0  0  0  0  0  0  0  0
    2.9902   -5.8149   -4.1548 H   0  0  0  0  0  0  0  0  0  0  0  0
   -1.0807   -3.7744    0.5708 C   0  0  0  0  0  0  0  0  0  0  0  0
    0.1580   -4.3066    0.3423 C   0  0  0  0  0  0  0  0  0  0  0  0
    0.1564   -4.7671   -1.0234 C   0  0  0  0  0  0  0  0  0  0  0  0
   -1.9059   -3.8959   -0.6778 C   0  0  0  0  0  0  0  0  0  0  0  0
   -0.9725   -4.5408   -1.5859 N   0  0  0  0  0  0  0  0  0  0  0  0
   -2.2039   -2.8977   -1.0609 H   0  0  0  0  0  0  0  0  0  0  0  0
   -2.7955   -4.5378   -0.5054 H   0  0  0  0  0  0  0  0  0  0  0  0
    4.3044   -6.7286   -1.9473 H   0  0  0  0  0  0  0  0  0  0  0  0
    2.8639   -5.5856   -0.0837 H   0  0  0  0  0  0  0  0  0  0  0  0
    0.9673   -4.3590    1.0578 H   0  0  0  0  0  0  0  0  0  0  0  0
   -1.4017   -3.3390    1.5076 H   0  0  0  0  0  0  0  0  0  0  0  0
  1 16  1  0  0  0  0
  2  1  2  0  0  0  0
  2 15  1  0  0  0  0
  3  5  1  0  0  0  0
  3  2  1  0  0  0  0
  4  1  1  0  0  0  0
  4 10  1  0  0  0  0
  5  4  2  0  0  0  0
  6  3  1  0  0  0  0
  7  3  1  0  0  0  0
  8 18  1  0  0  0  0
  9  8  2  0  0  0  0
  9 17  1  0  0  0  0
 10  9  1  0  0  0  0
 11 14  1  0  0  0  0
 11  8  1  0  0  0  0
 12 10  2  0  0  0  0
 12 11  1  0  0  0  0
 13 11  1  0  0  0  0
M  END
