
 OpenBabel10041822163D

 14 15  0  0  0  0  0  0  0  0999 V2000
    2.7920   -5.8536   -0.9500 S   0  0  0  0  0  0  0  0  0  0  0  0
    3.4472   -6.5513   -2.3018 C   0  0  0  0  0  0  0  0  0  0  0  0
    2.4682   -6.4421   -3.2992 C   0  0  0  0  0  0  0  0  0  0  0  0
    1.3326   -5.4373   -1.6075 C   0  0  0  0  0  0  0  0  0  0  0  0
    1.2994   -5.8247   -2.9067 N   0  0  0  0  0  0  0  0  0  0  0  0
   -1.3827   -3.6642    0.6216 C   0  0  0  0  0  0  0  0  0  0  0  0
    0.1587   -4.2684    0.6415 S   0  0  0  0  0  0  0  0  0  0  0  0
    0.2146   -4.7722   -0.9316 C   0  0  0  0  0  0  0  0  0  0  0  0
   -1.8580   -3.8757   -0.6810 C   0  0  0  0  0  0  0  0  0  0  0  0
   -0.9671   -4.4898   -1.5358 N   0  0  0  0  0  0  0  0  0  0  0  0
   -2.8492   -3.5844   -1.0016 H   0  0  0  0  0  0  0  0  0  0  0  0
   -1.9198   -3.2025    1.4391 H   0  0  0  0  0  0  0  0  0  0  0  0
    2.6090   -6.8140   -4.3041 H   0  0  0  0  0  0  0  0  0  0  0  0
    4.4242   -7.0035   -2.4082 H   0  0  0  0  0  0  0  0  0  0  0  0
  2  1  1  0  0  0  0
  3  5  1  0  0  0  0
  3  2  2  0  0  0  0
  4  8  1  0  0  0  0
  4  1  1  0  0  0  0
  5  4  2  0  0  0  0
  6  7  1  0  0  0  0
  6 12  1  0  0  0  0
  8  7  1  0  0  0  0
  9  6  2  0  0  0  0
 10  8  2  0  0  0  0
 10  9  1  0  0  0  0
 11  9  1  0  0  0  0
 13  3  1  0  0  0  0
 14  2  1  0  0  0  0
M  END
