
 OpenBabel10041822173D

  9  9  0  0  0  0  0  0  0  0999 V2000
   -1.0389   -3.8284    0.4720 C   0  0  0  0  0  0  0  0  0  0  0  0
    0.1450   -4.4306    0.2867 N   0  0  0  0  0  0  0  0  0  0  0  0
    0.1037   -4.9501   -0.9537 C   0  0  0  0  0  0  0  0  0  0  0  0
   -1.7891   -3.9925   -0.6696 C   0  0  0  0  0  0  0  0  0  0  0  0
   -1.0717   -4.6977   -1.5668 N   0  0  0  0  0  0  0  0  0  0  0  0
    0.9152   -5.5041   -1.4065 H   0  0  0  0  0  0  0  0  0  0  0  0
    0.9362   -4.4852    0.9655 H   0  0  0  0  0  0  0  0  0  0  0  0
   -2.7918   -3.6245   -0.8404 H   0  0  0  0  0  0  0  0  0  0  0  0
   -1.3331   -3.3079    1.3738 H   0  0  0  0  0  0  0  0  0  0  0  0
  1  9  1  0  0  0  0
  2  1  1  0  0  0  0
  2  7  1  0  0  0  0
  3  2  1  0  0  0  0
  4  1  2  0  0  0  0
  5  3  2  0  0  0  0
  5  4  1  0  0  0  0
  6  3  1  0  0  0  0
  8  4  1  0  0  0  0
M  END
