
 OpenBabel10061800173D

 10 10  0  0  0  0  0  0  0  0999 V2000
    1.4491    7.6703   15.8680 N   0  0  0  0  0  0  0  0  0  0  0  0
    2.7067    7.4903   15.3860 C   0  0  0  0  0  0  0  0  0  0  0  0
    3.6066    6.6822   16.0789 C   0  0  0  0  0  0  0  0  0  0  0  0
    3.1844    6.0750   17.2605 C   0  0  0  0  0  0  0  0  0  0  0  0
    1.9188    6.2787   17.7112 N   0  0  0  0  0  0  0  0  0  0  0  0
    1.0540    7.0703   17.0224 C   0  0  0  0  0  0  0  0  0  0  0  0
    0.0500    7.2230   17.3936 H   0  0  0  0  0  0  0  0  0  0  0  0
    3.8614    5.4426   17.8192 H   0  0  0  0  0  0  0  0  0  0  0  0
    3.0069    7.9741   14.4661 H   0  0  0  0  0  0  0  0  0  0  0  0
    4.6116    6.5294   15.7075 H   0  0  0  0  0  0  0  0  0  0  0  0
  1  6  2  0  0  0  0
  2  1  1  0  0  0  0
  2  3  2  0  0  0  0
  2  9  1  0  0  0  0
  3  4  1  0  0  0  0
  3 10  1  0  0  0  0
  4  5  2  0  0  0  0
  4  8  1  0  0  0  0
  6  5  1  0  0  0  0
  7  6  1  0  0  0  0
M  END
