
 OpenBabel03301712323D

 10  9  0  0  0  0  0  0  0  0999 V2000
    1.7359   -2.6923   -0.1568 C   0  0  0  0  0  0  0  0  0  0  0  0
    1.5051   -1.4301    0.5374 N   0  0  0  0  0  0  0  0  0  0  0  0
    0.9893   -0.7868   -0.1056 H   0  0  0  0  0  0  0  0  0  0  0  0
    2.4264   -0.9875    0.7607 H   0  0  0  0  0  0  0  0  0  0  0  0
    2.4398   -3.6831    0.7630 C   0  0  0  0  0  0  0  0  0  0  0  0
    2.3560   -2.5182   -1.0641 H   0  0  0  0  0  0  0  0  0  0  0  0
    0.7598   -3.1225   -0.4692 H   0  0  0  0  0  0  0  0  0  0  0  0
    3.4275   -3.2832    1.0763 H   0  0  0  0  0  0  0  0  0  0  0  0
    2.5963   -4.6436    0.2282 H   0  0  0  0  0  0  0  0  0  0  0  0
    1.8197   -3.8715    1.6651 H   0  0  0  0  0  0  0  0  0  0  0  0
  1  2  1  0  0  0  0
  1  5  1  0  0  0  0
  1  6  1  0  0  0  0
  1  7  1  0  0  0  0
  2  4  1  0  0  0  0
  3  2  1  0  0  0  0
  5  8  1  0  0  0  0
  5  9  1  0  0  0  0
  5 10  1  0  0  0  0
M  END
