
 OpenBabel07041716383D

  6  5  0  0  0  0  0  0  0  0999 V2000
    2.5913    0.0347    0.5224 C   0  0  0  0  0  0  0  0  0  0  0  0
    1.4029    0.2921   -0.0307 C   0  5  0  0  0  0  0  0  0  0  0  0
    3.5042    0.0869   -0.0626 H   0  0  0  0  0  0  0  0  0  0  0  0
    2.6745   -0.2333    1.5710 H   0  0  0  0  0  0  0  0  0  0  0  0
    1.3196    0.5601   -1.0793 H   0  0  0  0  0  0  0  0  0  0  0  0
    0.4900    0.2399    0.5543 H   0  0  0  0  0  0  0  0  0  0  0  0
  1  2  2  0  0  0  0
  1  3  1  0  0  0  0
  1  4  1  0  0  0  0
  2  5  1  0  0  0  0
  2  6  1  0  0  0  0
M  END
