
 OpenBabel10041821093D

 10 10  0  0  0  0  0  0  0  0999 V2000
   -1.0390   -3.7827    0.5720 C   0  0  0  0  0  0  0  0  0  0  0  0
    0.1474   -4.4274    0.2776 O   0  0  0  0  0  0  0  0  0  0  0  0
    0.1008   -4.9467   -0.9493 C   0  0  0  0  0  0  0  0  0  0  0  0
   -1.8739   -3.9625   -0.7120 C   0  0  0  0  0  0  0  0  0  0  0  0
   -0.9842   -4.7142   -1.5549 N   0  0  0  0  0  0  0  0  0  0  0  0
   -2.1353   -2.9822   -1.1680 H   0  0  0  0  0  0  0  0  0  0  0  0
   -2.7764   -4.5736   -0.5101 H   0  0  0  0  0  0  0  0  0  0  0  0
   -0.8703   -2.7056    0.7915 H   0  0  0  0  0  0  0  0  0  0  0  0
   -1.5290   -4.2822    1.4330 H   0  0  0  0  0  0  0  0  0  0  0  0
    0.9031   -5.5312   -1.3853 H   0  0  0  0  0  0  0  0  0  0  0  0
  1  8  1  0  0  0  0
  1  9  1  0  0  0  0
  2  1  1  0  0  0  0
  3  2  1  0  0  0  0
  4  7  1  0  0  0  0
  4  1  1  0  0  0  0
  5  3  2  0  0  0  0
  5  4  1  0  0  0  0
  6  4  1  0  0  0  0
 10  3  1  0  0  0  0
M  END
