12

C    0.00000000  0.00000000  0.00000000
C    0.96574672  1.04549042 -0.05901953
C    2.18984999  0.92577632  0.65961805
C    2.44820654 -0.23942821  1.43727515
C    1.48245982 -1.28491862  1.49629467
C    0.25835655 -1.16520452  0.77765710
H   -0.48061426 -1.96519368  0.82281771
H    1.68014929 -2.17651071  2.09134293
H    3.38486682 -0.33103113  1.98716280
H    2.92882081  1.72576548  0.61445744
H    0.76805726  1.93708251 -0.65406778
I   -1.80457485  0.17648271 -1.05941657
