
 OpenBabel03301712113D

  7  6  0  0  0  0  0  0  0  0999 V2000
    1.6914   -2.0891   -0.0197 C   0  0  0  0  0  0  0  0  0  0  0  0
    1.0571   -0.7784    0.0374 N   0  0  0  0  0  0  0  0  0  0  0  0
    0.8908   -0.4370   -0.9371 H   0  0  0  0  0  0  0  0  0  0  0  0
    1.7004   -0.1087    0.5187 H   0  0  0  0  0  0  0  0  0  0  0  0
    1.0193   -2.8062   -0.5361 H   0  0  0  0  0  0  0  0  0  0  0  0
    1.8794   -2.4573    1.0107 H   0  0  0  0  0  0  0  0  0  0  0  0
    2.6570   -2.0349   -0.5688 H   0  0  0  0  0  0  0  0  0  0  0  0
  1  5  1  0  0  0  0
  1  6  1  0  0  0  0
  1  7  1  0  0  0  0
  2  1  1  0  0  0  0
  2  3  1  0  0  0  0
  2  4  1  0  0  0  0
M  CHG  1   1   0
M  END
