
 OpenBabel10261611303D

 52 54  0  0  0  0  0  0  0  0999 V2000
   -0.1966   -0.0874   -1.1223 P   0  0  0  0  0  0  0  0  0  0  0  0
    0.5231    1.5340   -0.5602 C   0  0  0  0  0  0  0  0  0  0  0  0
   -1.7967   -0.0455   -0.1732 C   0  0  0  0  0  0  0  0  0  0  0  0
    0.7983   -1.2406   -0.0501 C   0  0  0  0  0  0  0  0  0  0  0  0
    0.7131    1.5736    0.9576 C   0  0  0  0  0  0  0  0  0  0  0  0
    1.8419    1.8342   -1.2940 C   0  0  0  0  0  0  0  0  0  0  0  0
   -2.6493    1.1669   -0.5537 C   0  0  0  0  0  0  0  0  0  0  0  0
   -2.5804   -1.3568   -0.3581 C   0  0  0  0  0  0  0  0  0  0  0  0
    0.4020   -2.6995   -0.3104 C   0  0  0  0  0  0  0  0  0  0  0  0
    2.3008   -1.0282   -0.2744 C   0  0  0  0  0  0  0  0  0  0  0  0
    1.1765    2.9545    1.4330 C   0  0  0  0  0  0  0  0  0  0  0  0
    2.7666    2.7818   -0.5222 C   0  0  0  0  0  0  0  0  0  0  0  0
   -3.9009    1.2750    0.3234 C   0  0  0  0  0  0  0  0  0  0  0  0
   -4.0879   -1.2032   -0.1294 C   0  0  0  0  0  0  0  0  0  0  0  0
    1.2392   -3.6635    0.5289 C   0  0  0  0  0  0  0  0  0  0  0  0
    3.1331   -1.9965    0.5647 C   0  0  0  0  0  0  0  0  0  0  0  0
    1.9910    3.7210    0.3899 C   0  0  0  0  0  0  0  0  0  0  0  0
   -4.4076   -0.0731    0.8383 C   0  0  0  0  0  0  0  0  0  0  0  0
    2.7337   -3.4469    0.3120 C   0  0  0  0  0  0  0  0  0  0  0  0
   -0.1674    2.3314   -0.8505 H   0  0  0  0  0  0  0  0  0  0  0  0
   -1.5732    0.0242    0.8956 H   0  0  0  0  0  0  0  0  0  0  0  0
    0.5679   -1.0449    1.0033 H   0  0  0  0  0  0  0  0  0  0  0  0
    1.4558    0.8673    1.3303 H   0  0  0  0  0  0  0  0  0  0  0  0
   -0.2051    1.3548    1.5079 H   0  0  0  0  0  0  0  0  0  0  0  0
    1.5559    2.3616   -2.2182 H   0  0  0  0  0  0  0  0  0  0  0  0
    2.4046    0.9862   -1.6846 H   0  0  0  0  0  0  0  0  0  0  0  0
   -2.9563    1.0868   -1.6056 H   0  0  0  0  0  0  0  0  0  0  0  0
   -2.1210    2.1183   -0.4645 H   0  0  0  0  0  0  0  0  0  0  0  0
   -2.2534   -2.0595    0.4142 H   0  0  0  0  0  0  0  0  0  0  0  0
   -2.4153   -1.8277   -1.3341 H   0  0  0  0  0  0  0  0  0  0  0  0
    0.5469   -2.9428   -1.3721 H   0  0  0  0  0  0  0  0  0  0  0  0
   -0.6352   -2.9227   -0.0906 H   0  0  0  0  0  0  0  0  0  0  0  0
    2.6639   -0.0502    0.0233 H   0  0  0  0  0  0  0  0  0  0  0  0
    2.5565   -1.1810   -1.3311 H   0  0  0  0  0  0  0  0  0  0  0  0
    1.7687    2.8337    2.3487 H   0  0  0  0  0  0  0  0  0  0  0  0
    0.3072    3.5626    1.7124 H   0  0  0  0  0  0  0  0  0  0  0  0
    3.3724    3.3598   -1.2296 H   0  0  0  0  0  0  0  0  0  0  0  0
    3.4686    2.1945    0.0821 H   0  0  0  0  0  0  0  0  0  0  0  0
   -4.6907    1.7724   -0.2528 H   0  0  0  0  0  0  0  0  0  0  0  0
   -3.6969    1.9234    1.1844 H   0  0  0  0  0  0  0  0  0  0  0  0
   -4.5056   -2.1479    0.2375 H   0  0  0  0  0  0  0  0  0  0  0  0
   -4.5774   -0.9991   -1.0902 H   0  0  0  0  0  0  0  0  0  0  0  0
    0.9786   -4.6968    0.2730 H   0  0  0  0  0  0  0  0  0  0  0  0
    0.9995   -3.5270    1.5907 H   0  0  0  0  0  0  0  0  0  0  0  0
    3.0043   -1.7627    1.6290 H   0  0  0  0  0  0  0  0  0  0  0  0
    4.1968   -1.8643    0.3353 H   0  0  0  0  0  0  0  0  0  0  0  0
    1.3166    4.3376   -0.2177 H   0  0  0  0  0  0  0  0  0  0  0  0
    2.6751    4.4130    0.8938 H   0  0  0  0  0  0  0  0  0  0  0  0
   -3.9457   -0.2894    1.8100 H   0  0  0  0  0  0  0  0  0  0  0  0
   -5.4878   -0.0165    1.0135 H   0  0  0  0  0  0  0  0  0  0  0  0
    3.3023   -4.1071    0.9764 H   0  0  0  0  0  0  0  0  0  0  0  0
    2.9971   -3.7240   -0.7161 H   0  0  0  0  0  0  0  0  0  0  0  0
  1  2  1  0  0  0  0
  1  3  1  0  0  0  0
  1  4  1  0  0  0  0
  2  5  1  0  0  0  0
  2  6  1  0  0  0  0
  2 20  1  0  0  0  0
  3  7  1  0  0  0  0
  3  8  1  0  0  0  0
  3 21  1  0  0  0  0
  4  9  1  0  0  0  0
  4 10  1  0  0  0  0
  4 22  1  0  0  0  0
  5 11  1  0  0  0  0
  5 23  1  0  0  0  0
  5 24  1  0  0  0  0
  6 12  1  0  0  0  0
  6 25  1  0  0  0  0
  6 26  1  0  0  0  0
  7 13  1  0  0  0  0
  7 27  1  0  0  0  0
  7 28  1  0  0  0  0
  8 14  1  0  0  0  0
  8 29  1  0  0  0  0
  8 30  1  0  0  0  0
  9 15  1  0  0  0  0
  9 31  1  0  0  0  0
  9 32  1  0  0  0  0
 10 16  1  0  0  0  0
 10 33  1  0  0  0  0
 10 34  1  0  0  0  0
 11 17  1  0  0  0  0
 11 35  1  0  0  0  0
 11 36  1  0  0  0  0
 12 17  1  0  0  0  0
 12 37  1  0  0  0  0
 12 38  1  0  0  0  0
 13 18  1  0  0  0  0
 13 39  1  0  0  0  0
 13 40  1  0  0  0  0
 14 18  1  0  0  0  0
 14 41  1  0  0  0  0
 14 42  1  0  0  0  0
 15 19  1  0  0  0  0
 15 43  1  0  0  0  0
 15 44  1  0  0  0  0
 16 19  1  0  0  0  0
 16 45  1  0  0  0  0
 16 46  1  0  0  0  0
 17 47  1  0  0  0  0
 17 48  1  0  0  0  0
 18 49  1  0  0  0  0
 18 50  1  0  0  0  0
 19 51  1  0  0  0  0
 19 52  1  0  0  0  0
M  END
