
 OpenBabel11161612343D

 28 29  0  0  0  0  0  0  0  0999 V2000
    3.1117    0.8158   -1.3940 O   0  0  0  0  0  0  0  0  0  0  0  0
    2.5035    0.2178   -0.5193 C   0  0  0  0  0  0  0  0  0  0  0  0
    1.0011    0.2320   -0.5775 C   0  0  0  0  0  0  0  0  0  0  0  0
    3.2352   -0.4172    0.6354 C   0  0  0  0  0  0  0  0  0  0  0  0
    4.7377   -0.3230    0.7389 C   0  0  0  0  0  0  0  0  0  0  0  0
    5.3853    0.2682   -0.1114 O   0  5  0  0  0  0  0  0  0  0  0  0
    5.4893   -0.9479    1.8809 C   0  0  0  0  0  0  0  0  0  0  0  0
    2.7035   -0.9212    1.3622 H   0  0  0  0  0  0  0  0  0  0  0  0
    4.8427   -1.6544    2.9220 C   0  0  0  0  0  0  0  0  0  0  0  0
    6.8964   -0.8313    1.9259 C   0  0  0  0  0  0  0  0  0  0  0  0
    7.6280   -1.3998    2.9722 C   0  0  0  0  0  0  0  0  0  0  0  0
    5.5852   -2.2192    3.9643 C   0  0  0  0  0  0  0  0  0  0  0  0
    6.9736   -2.0924    3.9895 C   0  0  0  0  0  0  0  0  0  0  0  0
    0.3585    0.9641   -1.6005 C   0  0  0  0  0  0  0  0  0  0  0  0
   -1.0361    1.0256   -1.6683 C   0  0  0  0  0  0  0  0  0  0  0  0
   -1.8138    0.3576   -0.7237 C   0  0  0  0  0  0  0  0  0  0  0  0
   -1.1999   -0.3755    0.2909 C   0  0  0  0  0  0  0  0  0  0  0  0
    7.4322   -0.2992    1.1499 H   0  0  0  0  0  0  0  0  0  0  0  0
    7.5429   -2.5316    4.7986 H   0  0  0  0  0  0  0  0  0  0  0  0
    8.7058   -1.3021    2.9929 H   0  0  0  0  0  0  0  0  0  0  0  0
    5.0799   -2.7577    4.7559 H   0  0  0  0  0  0  0  0  0  0  0  0
    3.7740   -1.7806    2.9492 H   0  0  0  0  0  0  0  0  0  0  0  0
    0.9361    1.4996   -2.3435 H   0  0  0  0  0  0  0  0  0  0  0  0
   -1.5140    1.5970   -2.4536 H   0  0  0  0  0  0  0  0  0  0  0  0
   -2.8936    0.4092   -0.7772 H   0  0  0  0  0  0  0  0  0  0  0  0
    0.1950   -0.4415    0.3707 C   0  0  0  0  0  0  0  0  0  0  0  0
   -1.8066   -0.8930    1.0231 H   0  0  0  0  0  0  0  0  0  0  0  0
    0.6187   -1.0179    1.1748 H   0  0  0  0  0  0  0  0  0  0  0  0
  1  2  2  0  0  0  0
  2  3  1  0  0  0  0
  2  4  1  0  0  0  0
  3 14  1  0  0  0  0
  4  5  2  0  0  0  0
  4  8  1  0  0  0  0
  5  6  1  0  0  0  0
  5  7  1  0  0  0  0
  7  9  1  0  0  0  0
  7 10  2  0  0  0  0
  9 22  1  0  0  0  0
 10 11  1  0  0  0  0
 10 18  1  0  0  0  0
 11 20  1  0  0  0  0
 12  9  2  0  0  0  0
 12 13  1  0  0  0  0
 12 21  1  0  0  0  0
 13 11  2  0  0  0  0
 13 19  1  0  0  0  0
 14 15  2  0  0  0  0
 14 23  1  0  0  0  0
 15 16  1  0  0  0  0
 15 24  1  0  0  0  0
 16 17  2  0  0  0  0
 16 25  1  0  0  0  0
 17 26  1  0  0  0  0
 17 27  1  0  0  0  0
 26  3  2  0  0  0  0
 26 28  1  0  0  0  0
M  CHG  1   6  -1
M  END
