
 OpenBabel03141720083D

 46 48  0  0  0  0  0  0  0  0999 V2000
   -0.4850   -4.2752    0.0292 C   0  0  0  0  0  0  0  0  0  0  0  0
   -0.3006   -4.5676    1.0939 H   0  0  0  0  0  0  0  0  0  0  0  0
   -0.7470   -5.1994   -0.5264 H   0  0  0  0  0  0  0  0  0  0  0  0
   -1.6544   -3.3343   -0.1188 C   0  0  0  0  0  0  0  0  0  0  0  0
   -1.8005   -3.0267   -1.1638 H   0  0  0  0  0  0  0  0  0  0  0  0
   -2.5068   -3.9158    0.2822 H   0  0  0  0  0  0  0  0  0  0  0  0
   -2.5148   -1.3261    1.1178 C   0  0  0  0  0  0  0  0  0  0  0  0
   -2.1557   -0.0476    1.6281 C   0  0  0  0  0  0  0  0  0  0  0  0
   -0.2619    1.4561    2.2520 C   0  0  0  0  0  0  0  0  0  0  0  0
   -0.0945    1.0390    3.2702 H   0  0  0  0  0  0  0  0  0  0  0  0
   -0.9980    2.2823    2.3391 H   0  0  0  0  0  0  0  0  0  0  0  0
   -0.7925    0.4328    1.3859 N   0  0  0  0  0  0  0  0  0  0  0  0
   -0.8916    0.9303    0.4920 H   0  0  0  0  0  0  0  0  0  0  0  0
   -1.4669   -2.1385    0.6349 N   0  0  0  0  0  0  0  0  0  0  0  0
   -1.2622   -2.5398    1.5771 H   0  0  0  0  0  0  0  0  0  0  0  0
    0.9771    2.0635    1.6905 C   0  0  0  0  0  0  0  0  0  0  0  0
    0.7602    2.4979    0.6905 H   0  0  0  0  0  0  0  0  0  0  0  0
    1.2820    2.8950    2.3670 H   0  0  0  0  0  0  0  0  0  0  0  0
    2.0656    1.0120    1.5930 C   0  0  0  0  0  0  0  0  0  0  0  0
    2.2694    0.5885    2.6069 H   0  0  0  0  0  0  0  0  0  0  0  0
    2.9639    1.5824    1.2911 H   0  0  0  0  0  0  0  0  0  0  0  0
    2.8985   -0.8419    0.1469 C   0  0  0  0  0  0  0  0  0  0  0  0
    2.5674   -2.0937   -0.2717 C   0  0  0  0  0  0  0  0  0  0  0  0
    0.7557   -3.6962   -0.5998 C   0  0  0  0  0  0  0  0  0  0  0  0
    0.5637   -3.4715   -1.6682 H   0  0  0  0  0  0  0  0  0  0  0  0
    1.4669   -4.5413   -0.4984 H   0  0  0  0  0  0  0  0  0  0  0  0
    1.2792   -2.4980    0.0527 N   0  0  0  0  0  0  0  0  0  0  0  0
    1.7813   -0.0638    0.6258 N   0  0  0  0  0  0  0  0  0  0  0  0
   -3.1743    0.6838    2.3075 C   0  0  0  0  0  0  0  0  0  0  0  0
   -4.4899    0.1852    2.3813 C   0  0  0  0  0  0  0  0  0  0  0  0
   -4.8217   -1.0319    1.7978 C   0  0  0  0  0  0  0  0  0  0  0  0
   -3.8395   -1.7960    1.1977 C   0  0  0  0  0  0  0  0  0  0  0  0
    4.2591   -0.4381    0.0127 C   0  0  0  0  0  0  0  0  0  0  0  0
    5.1837   -1.2980   -0.6343 C   0  0  0  0  0  0  0  0  0  0  0  0
    4.7708   -2.5226   -1.1451 C   0  0  0  0  0  0  0  0  0  0  0  0
    3.4765   -2.9279   -0.9478 C   0  0  0  0  0  0  0  0  0  0  0  0
   -5.8400   -1.4043    1.8224 H   0  0  0  0  0  0  0  0  0  0  0  0
   -4.1400   -2.7557    0.8140 H   0  0  0  0  0  0  0  0  0  0  0  0
   -3.0034    1.6428    2.7685 H   0  0  0  0  0  0  0  0  0  0  0  0
   -5.2754    0.7434    2.8753 H   0  0  0  0  0  0  0  0  0  0  0  0
    5.4423   -3.1834   -1.6805 H   0  0  0  0  0  0  0  0  0  0  0  0
    3.2177   -3.8982   -1.3342 H   0  0  0  0  0  0  0  0  0  0  0  0
    4.6258    0.5129    0.3639 H   0  0  0  0  0  0  0  0  0  0  0  0
    6.2209   -1.0382   -0.7830 H   0  0  0  0  0  0  0  0  0  0  0  0
    1.4660   -2.8320    1.0175 H   0  0  0  0  0  0  0  0  0  0  0  0
    1.5867    0.5317   -0.1949 H   0  0  0  0  0  0  0  0  0  0  0  0
  1  4  1  0  0  0  0
  1  2  1  0  0  0  0
  3  1  1  0  0  0  0
  4  6  1  0  0  0  0
  4 14  1  0  0  0  0
  5  4  1  0  0  0  0
  7  8  1  0  0  0  0
  8 29  2  0  0  0  0
  9 11  1  0  0  0  0
  9 10  1  0  0  0  0
 12  8  1  0  0  0  0
 12  9  1  0  0  0  0
 13 12  1  0  0  0  0
 14  7  1  0  0  0  0
 14 15  1  0  0  0  0
 16  9  1  0  0  0  0
 16 18  1  0  0  0  0
 17 16  1  0  0  0  0
 19 16  1  0  0  0  0
 19 20  1  0  0  0  0
 21 19  1  0  0  0  0
 22 28  1  0  0  0  0
 23 27  1  0  0  0  0
 23 22  2  0  0  0  0
 24  1  1  0  0  0  0
 24 27  1  0  0  0  0
 25 24  1  0  0  0  0
 26 24  1  0  0  0  0
 27 45  1  0  0  0  0
 28 19  1  0  0  0  0
 28 46  1  0  0  0  0
 29 39  1  0  0  0  0
 30 29  1  0  0  0  0
 30 40  1  0  0  0  0
 31 30  2  0  0  0  0
 32  7  2  0  0  0  0
 32 31  1  0  0  0  0
 33 43  1  0  0  0  0
 33 22  1  0  0  0  0
 34 33  2  0  0  0  0
 35 36  2  0  0  0  0
 35 34  1  0  0  0  0
 36 23  1  0  0  0  0
 37 31  1  0  0  0  0
 38 32  1  0  0  0  0
 41 35  1  0  0  0  0
 42 36  1  0  0  0  0
 44 34  1  0  0  0  0
M  END
