
 OpenBabel11071614463D

  4  3  0  0  0  0  0  0  0  0999 V2000
   -0.9460    0.6064    0.0000 P   0  0  0  0  0  0  0  0  0  0  0  0
    0.4340    0.6064    0.0000 H   0  0  0  0  0  0  0  0  0  0  0  0
   -1.4060   -0.1724    1.0423 H   0  0  0  0  0  0  0  0  0  0  0  0
   -1.4060    0.0932   -1.1956 H   0  0  0  0  0  0  0  0  0  0  0  0
  1  2  1  0  0  0  0
  1  3  1  0  0  0  0
  1  4  1  0  0  0  0
M  CHG  1   1   0
M  END
