
 OpenBabel03181718123D

 56 64  0  0  0  0  0  0  0  0999 V2000
    1.4536    0.0432    0.1987 N   0  0  0  0  0  0  0  0  0  0  0  0
    3.0191   -1.8677    0.1168 N   0  0  0  0  0  0  0  0  0  0  0  0
    0.8334   -2.6904    0.3703 N   0  0  0  0  0  0  0  0  0  0  0  0
    0.6311    2.2431    0.3136 N   0  0  0  0  0  0  0  0  0  0  0  0
    1.5957    1.3894    0.2081 C   0  0  0  0  0  0  0  0  0  0  0  0
    2.9436    1.7101    0.1646 C   0  0  0  0  0  0  0  0  0  0  0  0
    3.6136    2.9318    0.2143 C   0  0  0  0  0  0  0  0  0  0  0  0
    3.0719    3.8657    0.2755 H   0  0  0  0  0  0  0  0  0  0  0  0
    5.0233    2.9090    0.2145 C   0  0  0  0  0  0  0  0  0  0  0  0
    5.5765    3.8365    0.2706 H   0  0  0  0  0  0  0  0  0  0  0  0
    5.7245    1.6832    0.1567 C   0  0  0  0  0  0  0  0  0  0  0  0
    6.8070    1.6764    0.1680 H   0  0  0  0  0  0  0  0  0  0  0  0
    5.0253    0.4672    0.1015 C   0  0  0  0  0  0  0  0  0  0  0  0
    5.5510   -0.4799    0.0763 H   0  0  0  0  0  0  0  0  0  0  0  0
    3.6340    0.5226    0.1148 C   0  0  0  0  0  0  0  0  0  0  0  0
    2.7022   -0.4844    0.1367 C   0  0  0  0  0  0  0  0  0  0  0  0
    2.1746   -2.8321    0.2105 C   0  0  0  0  0  0  0  0  0  0  0  0
    2.5098   -4.1741    0.1137 C   0  0  0  0  0  0  0  0  0  0  0  0
    3.7329   -4.8227   -0.0838 C   0  0  0  0  0  0  0  0  0  0  0  0
    4.6572   -4.2679   -0.1729 H   0  0  0  0  0  0  0  0  0  0  0  0
    3.7266   -6.2293   -0.1804 C   0  0  0  0  0  0  0  0  0  0  0  0
    4.6537   -6.7650   -0.3409 H   0  0  0  0  0  0  0  0  0  0  0  0
    2.5162   -6.9495   -0.0794 C   0  0  0  0  0  0  0  0  0  0  0  0
    2.5210   -8.0296   -0.1634 H   0  0  0  0  0  0  0  0  0  0  0  0
    1.3018   -6.2714    0.1219 C   0  0  0  0  0  0  0  0  0  0  0  0
    0.3679   -6.8158    0.1894 H   0  0  0  0  0  0  0  0  0  0  0  0
    1.3400   -4.8778    0.2132 C   0  0  0  0  0  0  0  0  0  0  0  0
    0.3321   -3.9540    0.3761 C   0  0  0  0  0  0  0  0  0  0  0  0
   -0.7473    1.9207    0.4789 C   0  0  0  0  0  0  0  0  0  0  0  0
   -1.2534    0.6706    0.4892 N   0  0  0  0  0  0  0  0  0  0  0  0
   -1.8919   -2.0260    0.6282 N   0  0  0  0  0  0  0  0  0  0  0  0
   -1.9824   -3.3749    0.6468 C   0  0  0  0  0  0  0  0  0  0  0  0
   -0.9055   -4.2735    0.4883 N   0  0  0  0  0  0  0  0  0  0  0  0
   -3.2759   -3.7650    0.8988 C   0  0  0  0  0  0  0  0  0  0  0  0
   -3.8326   -5.0348    1.0486 C   0  0  0  0  0  0  0  0  0  0  0  0
   -3.2318   -5.9302    0.9438 H   0  0  0  0  0  0  0  0  0  0  0  0
   -5.1998   -5.1154    1.3617 C   0  0  0  0  0  0  0  0  0  0  0  0
   -5.6622   -6.0852    1.4982 H   0  0  0  0  0  0  0  0  0  0  0  0
   -5.9685   -3.9395    1.5112 C   0  0  0  0  0  0  0  0  0  0  0  0
   -7.0169   -4.0167    1.7673 H   0  0  0  0  0  0  0  0  0  0  0  0
   -5.3794   -2.6709    1.3367 C   0  0  0  0  0  0  0  0  0  0  0  0
   -5.9603   -1.7673    1.4613 H   0  0  0  0  0  0  0  0  0  0  0  0
   -4.0188   -2.6207    1.0287 C   0  0  0  0  0  0  0  0  0  0  0  0
   -3.1498   -1.5605    0.8315 C   0  0  0  0  0  0  0  0  0  0  0  0
   -3.4825   -0.3180    0.8729 N   0  0  0  0  0  0  0  0  0  0  0  0
   -2.5853    0.7719    0.7111 C   0  0  0  0  0  0  0  0  0  0  0  0
   -2.9289    2.0953    0.8461 C   0  0  0  0  0  0  0  0  0  0  0  0
   -4.1616    2.6980    1.0903 C   0  0  0  0  0  0  0  0  0  0  0  0
   -5.0717    2.1141    1.1547 H   0  0  0  0  0  0  0  0  0  0  0  0
   -4.1835    4.0928    1.2587 C   0  0  0  0  0  0  0  0  0  0  0  0
   -5.1236    4.5946    1.4504 H   0  0  0  0  0  0  0  0  0  0  0  0
   -2.9848    4.8387    1.2011 C   0  0  0  0  0  0  0  0  0  0  0  0
   -3.0135    5.9076    1.3663 H   0  0  0  0  0  0  0  0  0  0  0  0
   -1.7557    4.2030    0.9334 C   0  0  0  0  0  0  0  0  0  0  0  0
   -0.8333    4.7669    0.9015 H   0  0  0  0  0  0  0  0  0  0  0  0
   -1.7655    2.8221    0.7408 C   0  0  0  0  0  0  0  0  0  0  0  0
  1  5  1  0  0  0  0
  2 16  2  0  0  0  0
  2 17  1  0  0  0  0
  3 28  1  0  0  0  0
  4 29  1  0  0  0  0
  5  4  2  0  0  0  0
  6  5  1  0  0  0  0
  6  7  1  0  0  0  0
  7  9  2  0  0  0  0
  7  8  1  0  0  0  0
  9 10  1  0  0  0  0
 11 12  1  0  0  0  0
 11  9  1  0  0  0  0
 13 15  1  0  0  0  0
 13 11  2  0  0  0  0
 14 13  1  0  0  0  0
 15 16  1  0  0  0  0
 15  6  2  0  0  0  0
 16  1  1  0  0  0  0
 17  3  2  0  0  0  0
 18 17  1  0  0  0  0
 18 27  2  0  0  0  0
 19 18  1  0  0  0  0
 20 19  1  0  0  0  0
 21 19  2  0  0  0  0
 21 23  1  0  0  0  0
 22 21  1  0  0  0  0
 23 25  2  0  0  0  0
 24 23  1  0  0  0  0
 25 26  1  0  0  0  0
 25 27  1  0  0  0  0
 27 28  1  0  0  0  0
 28 33  2  0  0  0  0
 29 30  2  0  0  0  0
 29 56  1  0  0  0  0
 30 46  1  0  0  0  0
 31 32  2  0  0  0  0
 31 44  2  0  0  0  0
 32 34  2  0  0  0  0
 33 32  1  0  0  0  0
 34 43  1  0  0  0  0
 34 35  1  0  0  0  0
 35 37  2  0  0  0  0
 36 35  1  0  0  0  0
 37 38  1  0  0  0  0
 37 39  1  0  0  0  0
 39 40  1  0  0  0  0
 41 42  1  0  0  0  0
 41 39  2  0  0  0  0
 43 41  1  0  0  0  0
 44 45  1  0  0  0  0
 44 43  2  0  0  0  0
 46 47  1  0  0  0  0
 46 45  2  0  0  0  0
 47 48  1  0  0  0  0
 48 49  1  0  0  0  0
 48 50  2  0  0  0  0
 50 51  1  0  0  0  0
 52 50  1  0  0  0  0
 52 53  1  0  0  0  0
 54 52  2  0  0  0  0
 55 54  1  0  0  0  0
 56 47  2  0  0  0  0
 56 54  1  0  0  0  0
M  CHG  2   5  -1   6  -1
M  END
