
 OpenBabel11081614483D

  8  7  0  0  0  0  0  0  0  0999 V2000
    3.1640    0.8025   -1.4599 O   0  5  0  0  0  0  0  0  0  0  0  0
    2.5578    0.1758   -0.6073 C   0  0  0  0  0  0  0  0  0  0  0  0
    3.2397   -0.3499    0.6011 C   0  0  0  0  0  0  0  0  0  0  0  0
    4.5615   -0.2383    0.8155 C   0  0  0  0  0  0  0  0  0  0  0  0
    5.3751    0.3546   -0.0798 O   0  0  0  0  0  0  0  0  0  0  0  0
    2.6350   -0.8498    1.3514 H   0  0  0  0  0  0  0  0  0  0  0  0
    4.9886   -0.6392    1.7298 H   0  0  0  0  0  0  0  0  0  0  0  0
    1.4910    0.0130   -0.7275 H   0  0  0  0  0  0  0  0  0  0  0  0
  1  2  2  0  0  0  0
  2  3  1  0  0  0  0
  2  8  1  0  0  0  0
  3  4  2  0  0  0  0
  3  6  1  0  0  0  0
  4  5  1  0  0  0  0
  7  4  1  0  0  0  0
M  CHG  1   5  -1
M  END
