
 OpenBabel10041822143D

  8  8  0  0  0  0  0  0  0  0999 V2000
   -1.1308   -3.7455    0.5816 C   0  0  0  0  0  0  0  0  0  0  0  0
    0.3565   -4.4547    0.4557 S   0  0  0  0  0  0  0  0  0  0  0  0
    0.1971   -5.0464   -1.0780 C   0  0  0  0  0  0  0  0  0  0  0  0
   -1.7708   -3.9909   -0.6403 C   0  0  0  0  0  0  0  0  0  0  0  0
   -1.0296   -4.7114   -1.5534 N   0  0  0  0  0  0  0  0  0  0  0  0
    0.9335   -5.6105   -1.6338 H   0  0  0  0  0  0  0  0  0  0  0  0
   -2.7718   -3.6449   -0.8597 H   0  0  0  0  0  0  0  0  0  0  0  0
   -1.5309   -3.2040    1.4279 H   0  0  0  0  0  0  0  0  0  0  0  0
  1  8  1  0  0  0  0
  2  1  1  0  0  0  0
  3  2  1  0  0  0  0
  4  1  2  0  0  0  0
  5  3  2  0  0  0  0
  5  4  1  0  0  0  0
  6  3  1  0  0  0  0
  7  4  1  0  0  0  0
M  END
