
 OpenBabel10241616303D

 16 16  0  0  0  0  0  0  0  0999 V2000
    2.5675   -0.0225    2.5067 S   0  0  0  0  0  0  0  0  0  0  0  0
    4.2872   -0.4793    3.0417 C   0  0  0  0  0  0  0  0  0  0  0  0
    4.4424   -2.0102    3.1443 C   0  0  0  0  0  0  0  0  0  0  0  0
    4.2165   -2.7400    1.8028 C   0  0  0  0  0  0  0  0  0  0  0  0
    2.8076   -2.5025    1.2158 C   0  0  0  0  0  0  0  0  0  0  0  0
    2.5155   -1.0162    0.9355 C   0  0  0  0  0  0  0  0  0  0  0  0
    4.4290    0.0117    4.0149 H   0  0  0  0  0  0  0  0  0  0  0  0
    4.9980   -0.0447    2.3223 H   0  0  0  0  0  0  0  0  0  0  0  0
    5.4643   -2.2134    3.5120 H   0  0  0  0  0  0  0  0  0  0  0  0
    3.7477   -2.4009    3.9090 H   0  0  0  0  0  0  0  0  0  0  0  0
    4.9770   -2.4041    1.0722 H   0  0  0  0  0  0  0  0  0  0  0  0
    4.3752   -3.8219    1.9450 H   0  0  0  0  0  0  0  0  0  0  0  0
    2.7032   -3.0463    0.2600 H   0  0  0  0  0  0  0  0  0  0  0  0
    2.0401   -2.9088    1.8981 H   0  0  0  0  0  0  0  0  0  0  0  0
    1.5080   -0.8575    0.5269 H   0  0  0  0  0  0  0  0  0  0  0  0
    3.2458   -0.5879    0.2322 H   0  0  0  0  0  0  0  0  0  0  0  0
  1  2  1  0  0  0  0
  2  3  1  0  0  0  0
  2  7  1  0  0  0  0
  3  9  1  0  0  0  0
  3 10  1  0  0  0  0
  4 12  1  0  0  0  0
  4  3  1  0  0  0  0
  5  4  1  0  0  0  0
  5 14  1  0  0  0  0
  6  5  1  0  0  0  0
  6  1  1  0  0  0  0
  8  2  1  0  0  0  0
 11  4  1  0  0  0  0
 13  5  1  0  0  0  0
 15  6  1  0  0  0  0
 16  6  1  0  0  0  0
M  END
