13
5
C         -1.23999        0.01104        0.00434
C         -0.40524       -1.08460        0.00661
N          0.89647       -0.65552        0.00580
N          0.89554        0.67092        0.00325
N         -0.38501        1.07078        0.00255
C         -0.71909        2.46919        0.00051
C         -0.72809       -2.52346        0.00966
H          0.19584        3.06717        0.00146
H         -1.30562        2.68518        0.89687
H         -1.30263        2.68329       -0.89823
H         -1.81003       -2.68853        0.01089
H         -0.30856       -3.00602        0.89772
H         -0.31000       -3.00950       -0.87718
