25

C    0.00000000  0.00000000  0.00000000
C    0.36423167  1.46163285 -0.32025725
C    1.55927172  1.75723082 -1.03698688
C    1.89618602  3.10924121 -1.33322483
C    1.03806026  4.16565362 -0.91273315
C   -0.15697979  3.87005565 -0.19600352
C   -0.49389409  2.51804526  0.10023443
H   -1.40831575  2.29185938  0.64866216
H   -0.81360111  4.67840211  0.12574862
H    1.29586060  5.20018596 -1.13940874
H    2.81060768  3.33542709 -1.88165255
H    2.21589304  0.94888436 -1.35873902
C   -1.32962884 -0.03949752  0.77596850
C   -2.22246871  1.06885516  0.71603892
C   -3.45237538  1.03231996  1.43380978
C   -3.78944218 -0.11256792  2.21151022
C   -2.89660230 -1.22092059  2.27143980
C   -1.66669563 -1.18438539  1.55366894
H   -0.98351173 -2.03247554  1.59952590
H   -3.15451933 -2.09696677  2.86652122
H   -4.73054310 -0.14052395  2.76073468
H   -4.13555928  1.88041011  1.38795283
H   -1.96455168  1.94490134  0.12095750
H   -0.10475284 -0.56028244 -0.92909119
H    0.78805343 -0.44629387  0.60654232
