12
09/05/2018 16:14, XYZ structure generated by mol3D Class, molSimplify
Pd 	0.000000	0.000000	0.000000
X 	-1.400000	1.400000	0.000000
X 	-1.400000	-1.400000	0.000000
X 	1.400000	-1.400000	0.000000
X 	1.400000	1.400000	0.000000
C 	3.499071	-0.318575	0.077700
C 	2.005087	-0.279285	0.022398
O 	1.400000	-1.400000	0.000000
O 	1.400000	1.005852	-0.000000
H 	3.914840	0.711027	0.093091
H 	3.825625	-0.850704	0.995724
H 	3.892603	-0.850704	-0.813668
