9

C    0.00000000  0.00000000  0.00000000
C    1.44909947  0.52125880  0.00000000
C    2.44867660 -0.32391962  0.00000000
H    3.47433791  0.04502330  0.00000000
H    2.25535988 -1.39663983  0.00000000
H    1.64241618  1.59397901  0.00000000
H   -0.68972982  0.84402178  0.00000000
H   -0.16796574 -0.60648235 -0.88998127
H   -0.16796574 -0.60648235  0.88998127
