15

C    0.00000000  0.00000000  0.00000000
C    1.52352030  0.02870223  0.22284987
C    2.35078059  0.83138494 -0.61413349
C    3.76003688  0.85793450 -0.40799736
C    4.34203287  0.08180136  0.63512212
C    3.51477258 -0.72088135  1.47210548
C    2.10551630 -0.74743091  1.26596936
H    1.47251264 -1.36162826  1.90641293
H    3.96010472 -1.31476349  2.27028045
H    5.42036867  0.10211657  0.79285352
H    4.39304054  1.47213186 -1.04844093
H    1.90544845  1.42526708 -1.41230846
H   -0.46160070 -0.66436693  0.73050761
H   -0.40341737  1.00574214  0.11763155
H   -0.21331773 -0.36169042 -1.00587056
