21

C    0.00000000  0.00000000  0.00000000
C   -0.20779254 -0.66404319 -1.37385185
H   -0.84239700 -0.02906278 -1.99205656
H    0.75740767 -0.79848489 -1.86212840
H   -0.68546223 -1.63458650 -1.23977222
C    0.89659712 -0.89712829  0.87342683
H    1.04367106 -0.42712369  1.84582847
H    0.41892743 -1.86767160  1.00750646
H    1.86179733 -1.03156998  0.38515028
C   -1.36367736  0.18994515  0.68985861
C   -1.64654882 -0.49159891  1.90833376
C   -2.90795037 -0.31589964  2.54645298
C   -3.88648047  0.54134367  1.96609705
C   -3.60360900  1.22288772  0.74762190
C   -2.34220745  1.04718846  0.10950268
H   -2.12575965  1.56869286 -0.82285106
H   -4.35236141  1.87883382  0.30354471
H   -4.85168068  0.67578535  2.45437359
H   -3.12439818 -0.83740404  3.47880673
H   -0.89779641 -1.14754500  2.35241096
H    0.47766969  0.97054331 -0.13407963
