16

C    0.00000000  0.00000000  0.00000000
C    1.46106500  0.07976700 -0.46454100
C    2.15439700 -1.25346500 -0.36596400
C    1.49776300 -2.41464000 -0.22669500
C   -0.00305200 -2.50893100 -0.14509000
C   -0.68346000 -1.22046400 -0.62853300
H   -1.76916300 -1.24158500 -0.36835200
H   -0.61242700 -1.14548800 -1.74024900
H   -0.27817100 -2.72159400  0.91472600
H   -0.35521800 -3.36668800 -0.76579200
H    2.07045600 -3.35528000 -0.15016400
H    3.25647300 -1.25818400 -0.42944600
H    1.51536200  0.41903300 -1.52571500
H    2.00553900  0.82782500  0.15913400
H   -0.04228400 -0.09132700  1.11194500
H   -0.53937200  0.93846700 -0.27431200
