26

C    0.00000000  0.00000000  0.00000000
C    1.49595900  0.20497400  0.01742800
C    2.17643400  0.49041600 -1.10644700
C    3.50758300  0.65312000 -1.07857400
C    4.16696200  0.52974000  0.08230700
C    3.48912100  0.24823000  1.20513900
C    2.15452800  0.08092100  1.18664000
C    1.42126800 -0.20761400  2.44452600
C    0.37675800 -1.29025100  2.05557900
C   -0.30659600 -1.17407700  0.89816900
C   -1.22814200 -2.09408400  0.56435800
C   -1.47890700 -3.13487000  1.37241500
C   -0.80611600 -3.25628800  2.52574800
C    0.11127000 -2.33721100  2.86206300
H    0.65264500 -2.44423700  3.81756800
H   -1.01015000 -4.10798600  3.19777200
H   -2.23654700 -3.88684700  1.09089600
H   -1.78723800 -2.00041900 -0.38201900
H    1.12504500  0.63243300  3.11330700
H    1.96404000 -0.28383900  3.41492100
H    4.04099900  0.15641800  2.15604900
H    5.26243400  0.66296200  0.11355500
H    4.05833400  0.88613100 -2.00646100
H    1.64284700  0.59024200 -2.06675000
H   -0.50774100  0.91269600  0.39003700
H   -0.36658700 -0.18485500 -1.03635200
