24

C    0.00000000  0.00000000  0.00000000
C    1.47217800  0.31398900  0.11721700
C    2.16894500  0.76205100 -0.94176600
C    3.47681600  1.03729700 -0.83438100
C    4.09293200  0.85710200  0.34230700
C    3.39118100  0.41932200  1.39787000
C    2.07617800  0.14285600  1.31045100
O    1.38061700 -0.28143500  2.40926700
C    0.35310500 -1.14590100  2.14668000
C   -0.36565100 -1.06192200  1.00882100
C   -1.38792600 -1.90561300  0.78410600
C   -1.70974200 -2.84723100  1.68309100
C   -0.99653200 -2.94832700  2.81320200
C    0.01964900 -2.10114100  3.03465100
H    0.59290400 -2.18638700  3.97381700
H   -1.25114800 -3.71906600  3.56178100
H   -2.55586100 -3.53128000  1.49650300
H   -1.97730100 -1.82399600 -0.14481700
H    3.90461600  0.28774900  2.36587700
H    5.16961800  1.07958900  0.44361500
H    4.04163400  1.41129500 -1.70627500
H    1.66361400  0.91300100 -1.91096800
H   -0.59264000  0.92205400  0.20167100
H   -0.23353900 -0.35654000 -1.03068300
